REMARK SMILES CC(C)Cc1ccc(C(C)C(=O)O)cc1
REMARK SMILES IDX 5 1 6 2 7 3 8 4 14 5 15 6 4 7 2 8 1 9 3 10 9 11 10 12 11 13
REMARK SMILES IDX 12 14 13 15
REMARK H PARENT 13 16
ROOT
ATOM      1  C   UNL     1      -0.835   0.529   0.480  1.00  0.00    -0.048 A 
ATOM      2  C   UNL     1      -0.481   0.896  -0.817  1.00  0.00     0.004 A 
ATOM      3  C   UNL     1       0.852   0.853  -1.185  1.00  0.00     0.005 A 
ATOM      4  C   UNL     1       1.817   0.453  -0.284  1.00  0.00    -0.034 A 
ATOM      5  C   UNL     1       1.457   0.091   0.996  1.00  0.00     0.005 A 
ATOM      6  C   UNL     1       0.116   0.128   1.388  1.00  0.00     0.004 A 
ENDROOT
BRANCH   1   7
ATOM      7  C   UNL     1      -2.278   0.597   0.810  1.00  0.00     0.038 C 
BRANCH   7   8
ATOM      8  C   UNL     1      -2.952  -0.720   0.504  1.00  0.00    -0.013 C 
ATOM      9  C   UNL     1      -2.838  -1.096  -0.949  1.00  0.00     0.008 C 
ATOM     10  C   UNL     1      -4.433  -0.602   0.811  1.00  0.00     0.008 C 
ENDBRANCH   7   8
ENDBRANCH   1   7
BRANCH   4  11
ATOM     11  C   UNL     1       3.238   0.433  -0.756  1.00  0.00     0.126 C 
ATOM     12  C   UNL     1       3.934   1.541   0.018  1.00  0.00     0.025 C 
BRANCH  11  13
ATOM     13  C   UNL     1       3.871  -0.877  -0.535  1.00  0.00     0.310 C 
ATOM     14  O   UNL     1       4.897  -0.928   0.205  1.00  0.00    -0.252 OA
BRANCH  13  15
ATOM     15  O   UNL     1       3.338  -1.989  -1.129  1.00  0.00    -0.481 OA
ATOM     16  H   UNL     1       3.516  -2.908  -0.731  1.00  0.00     0.296 HD
ENDBRANCH  13  15
ENDBRANCH  11  13
ENDBRANCH   4  11
TORSDOF 5
