MODEL 1
REMARK VINA RESULT:    -6.117      0.000      0.000
REMARK INTER + INTRA:         -11.814
REMARK INTER:                 -10.051
REMARK INTRA:                  -1.763
REMARK UNBOUND:                -1.763
REMARK SMILES C#Cc1cccc(Nc2ncnc3cc(OCCOC)c(OCCOC)cc23)c1
REMARK SMILES IDX 9 1 10 2 11 3 12 4 13 5 14 6 15 7 21 8 27 9 28 10 8 11 7 13
REMARK SMILES IDX 3 14 4 15 29 16 5 17 6 18 2 19 1 20 22 21 23 22 24 23 25 24
REMARK SMILES IDX 26 25 16 26 17 27 18 28 19 29 20 30
REMARK H PARENT 8 12
ROOT
ATOM      1  C   UNL     1     -51.135   0.571 -23.797  1.00  0.00     0.141 A 
ATOM      2  N   UNL     1     -52.163   0.884 -24.589  1.00  0.00    -0.219 NA
ATOM      3  C   UNL     1     -52.540   0.217 -25.677  1.00  0.00     0.224 A 
ATOM      4  N   UNL     1     -51.847  -0.874 -26.042  1.00  0.00    -0.236 NA
ATOM      5  C   UNL     1     -50.788  -1.267 -25.298  1.00  0.00     0.080 A 
ATOM      6  C   UNL     1     -50.090  -2.388 -25.688  1.00  0.00     0.079 A 
ATOM      7  C   UNL     1     -48.999  -2.857 -24.987  1.00  0.00     0.163 A 
ATOM      8  C   UNL     1     -48.594  -2.146 -23.825  1.00  0.00     0.162 A 
ATOM      9  C   UNL     1     -49.328  -1.031 -23.478  1.00  0.00     0.064 A 
ATOM     10  C   UNL     1     -50.413  -0.571 -24.181  1.00  0.00     0.047 A 
ENDROOT
BRANCH   1  11
ATOM     11  N   UNL     1     -50.777   1.318 -22.652  1.00  0.00    -0.340 N 
ATOM     12  H   UNL     1     -50.087   2.093 -22.773  1.00  0.00     0.168 HD
BRANCH  11  13
ATOM     13  C   UNL     1     -51.260   1.127 -21.339  1.00  0.00     0.041 A 
ATOM     14  C   UNL     1     -50.746   0.508 -19.044  1.00  0.00     0.026 A 
ATOM     15  C   UNL     1     -52.051   0.703 -18.670  1.00  0.00     0.017 A 
ATOM     16  C   UNL     1     -50.360   0.716 -20.346  1.00  0.00     0.043 A 
ATOM     17  C   UNL     1     -52.952   1.102 -19.603  1.00  0.00     0.003 A 
ATOM     18  C   UNL     1     -52.552   1.311 -20.928  1.00  0.00     0.026 A 
BRANCH  14  19
ATOM     19  C   UNL     1     -49.782   0.085 -18.060  1.00  0.00    -0.070 C 
ATOM     20  C   UNL     1     -48.969  -0.264 -17.254  1.00  0.00     0.010 C 
ENDBRANCH  14  19
ENDBRANCH  11  13
ENDBRANCH   1  11
BRANCH   8  21
ATOM     21  O   UNL     1     -47.514  -2.649 -23.181  1.00  0.00    -0.487 OA
BRANCH  21  22
ATOM     22  C   UNL     1     -47.383  -3.085 -21.888  1.00  0.00     0.258 C 
BRANCH  22  23
ATOM     23  C   UNL     1     -48.266  -4.240 -21.572  1.00  0.00     0.201 C 
BRANCH  23  24
ATOM     24  O   UNL     1     -48.969  -4.113 -20.373  1.00  0.00    -0.381 OA
ATOM     25  C   UNL     1     -49.791  -3.016 -20.309  1.00  0.00     0.195 C 
ENDBRANCH  23  24
ENDBRANCH  22  23
ENDBRANCH  21  22
ENDBRANCH   8  21
BRANCH   7  26
ATOM     26  O   UNL     1     -48.269  -3.947 -25.307  1.00  0.00    -0.487 OA
BRANCH  26  27
ATOM     27  C   UNL     1     -47.375  -4.242 -26.310  1.00  0.00     0.258 C 
BRANCH  27  28
ATOM     28  C   UNL     1     -46.668  -3.109 -26.964  1.00  0.00     0.201 C 
BRANCH  28  29
ATOM     29  O   UNL     1     -45.485  -2.828 -26.312  1.00  0.00    -0.381 OA
ATOM     30  C   UNL     1     -45.331  -1.535 -25.862  1.00  0.00     0.195 C 
ENDBRANCH  28  29
ENDBRANCH  27  28
ENDBRANCH  26  27
ENDBRANCH   7  26
TORSDOF 11
ENDMDL
