MODEL 1
REMARK VINA RESULT:    -6.712      0.000      0.000
REMARK INTER + INTRA:         -12.055
REMARK INTER:                 -11.029
REMARK INTRA:                  -1.026
REMARK UNBOUND:                -1.026
REMARK SMILES C#Cc1cccc(Nc2ncnc3cc(OCCOC)c(OCCOC)cc23)c1
REMARK SMILES IDX 9 1 10 2 11 3 12 4 13 5 14 6 15 7 21 8 27 9 28 10 8 11 7 13
REMARK SMILES IDX 3 14 4 15 29 16 5 17 6 18 2 19 1 20 22 21 23 22 24 23 25 24
REMARK SMILES IDX 26 25 16 26 17 27 18 28 19 29 20 30
REMARK H PARENT 8 12
ROOT
ATOM      1  C   UNL     1     -52.122  -0.012 -22.446  1.00  0.00     0.141 A 
ATOM      2  N   UNL     1     -53.286   0.547 -22.786  1.00  0.00    -0.219 NA
ATOM      3  C   UNL     1     -54.105   1.203 -21.966  1.00  0.00     0.224 A 
ATOM      4  N   UNL     1     -53.762   1.331 -20.674  1.00  0.00    -0.236 NA
ATOM      5  C   UNL     1     -52.598   0.796 -20.238  1.00  0.00     0.080 A 
ATOM      6  C   UNL     1     -52.264   0.938 -18.910  1.00  0.00     0.079 A 
ATOM      7  C   UNL     1     -51.098   0.423 -18.385  1.00  0.00     0.163 A 
ATOM      8  C   UNL     1     -50.222  -0.278 -19.259  1.00  0.00     0.162 A 
ATOM      9  C   UNL     1     -50.604  -0.391 -20.579  1.00  0.00     0.064 A 
ATOM     10  C   UNL     1     -51.767   0.125 -21.095  1.00  0.00     0.047 A 
ENDROOT
BRANCH   1  11
ATOM     11  N   UNL     1     -51.292  -0.700 -23.360  1.00  0.00    -0.340 N 
ATOM     12  H   UNL     1     -50.323  -0.940 -23.051  1.00  0.00     0.168 HD
BRANCH  11  13
ATOM     13  C   UNL     1     -51.637  -1.106 -24.668  1.00  0.00     0.041 A 
ATOM     14  C   UNL     1     -52.086  -0.434 -26.962  1.00  0.00     0.026 A 
ATOM     15  C   UNL     1     -52.313  -1.737 -27.328  1.00  0.00     0.017 A 
ATOM     16  C   UNL     1     -51.755  -0.127 -25.665  1.00  0.00     0.043 A 
ATOM     17  C   UNL     1     -52.207  -2.713 -26.391  1.00  0.00     0.003 A 
ATOM     18  C   UNL     1     -51.871  -2.392 -25.070  1.00  0.00     0.026 A 
BRANCH  14  19
ATOM     19  C   UNL     1     -52.195   0.609 -27.950  1.00  0.00    -0.070 C 
ATOM     20  C   UNL     1     -52.303   1.472 -28.771  1.00  0.00     0.010 C 
ENDBRANCH  14  19
ENDBRANCH  11  13
ENDBRANCH   1  11
BRANCH   8  21
ATOM     21  O   UNL     1     -49.096  -0.765 -18.687  1.00  0.00    -0.487 OA
BRANCH  21  22
ATOM     22  C   UNL     1     -48.690  -2.063 -18.506  1.00  0.00     0.258 C 
BRANCH  22  23
ATOM     23  C   UNL     1     -49.770  -2.942 -17.982  1.00  0.00     0.201 C 
BRANCH  23  24
ATOM     24  O   UNL     1     -49.849  -4.187 -18.609  1.00  0.00    -0.381 OA
ATOM     25  C   UNL     1     -50.475  -4.170 -19.830  1.00  0.00     0.195 C 
ENDBRANCH  23  24
ENDBRANCH  22  23
ENDBRANCH  21  22
ENDBRANCH   8  21
BRANCH   7  26
ATOM     26  O   UNL     1     -50.704   0.526 -17.098  1.00  0.00    -0.487 OA
BRANCH  26  27
ATOM     27  C   UNL     1     -51.338   0.378 -15.886  1.00  0.00     0.258 C 
BRANCH  27  28
ATOM     28  C   UNL     1     -50.771  -0.603 -14.923  1.00  0.00     0.201 C 
BRANCH  28  29
ATOM     29  O   UNL     1     -51.760  -1.127 -14.118  1.00  0.00    -0.381 OA
ATOM     30  C   UNL     1     -52.107  -0.376 -13.016  1.00  0.00     0.195 C 
ENDBRANCH  28  29
ENDBRANCH  27  28
ENDBRANCH  26  27
ENDBRANCH   7  26
TORSDOF 11
ENDMDL
