MODEL 1
REMARK VINA RESULT:    -5.518      0.000      0.000
REMARK INTER + INTRA:          -7.185
REMARK INTER:                  -6.648
REMARK INTRA:                  -0.537
REMARK UNBOUND:                -0.537
REMARK SMILES CC(=O)Oc1ccccc1C(=O)O
REMARK SMILES IDX 5 1 6 2 7 3 8 4 9 5 10 6 4 7 2 8 1 9 3 10 11 11 12 12 13 13
REMARK H PARENT 13 14
ROOT
ATOM      1  C   UNL     1     -52.377   0.483 -26.494  1.00  0.00     0.145 A 
ATOM      2  C   UNL     1     -52.059   1.824 -26.573  1.00  0.00     0.048 A 
ATOM      3  C   UNL     1     -52.263   2.479 -27.767  1.00  0.00     0.004 A 
ATOM      4  C   UNL     1     -52.774   1.793 -28.851  1.00  0.00     0.001 A 
ATOM      5  C   UNL     1     -53.088   0.436 -28.750  1.00  0.00     0.019 A 
ATOM      6  C   UNL     1     -52.889  -0.231 -27.559  1.00  0.00     0.102 A 
ENDROOT
BRANCH   1   7
ATOM      7  O   UNL     1     -52.165  -0.175 -25.270  1.00  0.00    -0.426 OA
BRANCH   7   8
ATOM      8  C   UNL     1     -52.978   0.078 -24.175  1.00  0.00     0.308 C 
ATOM      9  C   UNL     1     -52.491   0.132 -22.781  1.00  0.00     0.139 C 
ATOM     10  O   UNL     1     -54.218   0.280 -24.352  1.00  0.00    -0.252 OA
ENDBRANCH   7   8
ENDBRANCH   1   7
BRANCH   6  11
ATOM     11  C   UNL     1     -53.226  -1.649 -27.479  1.00  0.00     0.339 C 
ATOM     12  O   UNL     1     -53.057  -2.427 -28.462  1.00  0.00    -0.246 OA
BRANCH  11  13
ATOM     13  O   UNL     1     -53.746  -2.194 -26.314  1.00  0.00    -0.478 OA
ATOM     14  H   UNL     1     -53.513  -1.829 -25.389  1.00  0.00     0.297 HD
ENDBRANCH  11  13
ENDBRANCH   6  11
TORSDOF 4
ENDMDL
