MODEL 1
REMARK VINA RESULT:    -5.068      0.000      0.000
REMARK INTER + INTRA:          -6.845
REMARK INTER:                  -6.106
REMARK INTRA:                  -0.739
REMARK UNBOUND:                -0.739
REMARK SMILES CC(=O)Oc1ccccc1C(=O)O
REMARK SMILES IDX 5 1 6 2 7 3 8 4 9 5 10 6 4 7 2 8 1 9 3 10 11 11 12 12 13 13
REMARK H PARENT 13 14
ROOT
ATOM      1  C   UNL     1     -51.308   0.318 -21.916  1.00  0.00     0.145 A 
ATOM      2  C   UNL     1     -50.561  -0.848 -22.089  1.00  0.00     0.048 A 
ATOM      3  C   UNL     1     -50.609  -1.865 -21.146  1.00  0.00     0.004 A 
ATOM      4  C   UNL     1     -51.403  -1.749 -20.003  1.00  0.00     0.001 A 
ATOM      5  C   UNL     1     -52.136  -0.587 -19.847  1.00  0.00     0.019 A 
ATOM      6  C   UNL     1     -52.091   0.427 -20.784  1.00  0.00     0.102 A 
ENDROOT
BRANCH   1   7
ATOM      7  O   UNL     1     -51.228   1.304 -22.882  1.00  0.00    -0.426 OA
BRANCH   7   8
ATOM      8  C   UNL     1     -51.812   1.167 -24.152  1.00  0.00     0.308 C 
ATOM      9  C   UNL     1     -50.966   1.304 -25.383  1.00  0.00     0.139 C 
ATOM     10  O   UNL     1     -53.034   0.932 -24.296  1.00  0.00    -0.252 OA
ENDBRANCH   7   8
ENDBRANCH   1   7
BRANCH   6  11
ATOM     11  C   UNL     1     -52.885   1.637 -20.574  1.00  0.00     0.339 C 
ATOM     12  O   UNL     1     -52.713   2.343 -19.553  1.00  0.00    -0.246 OA
BRANCH  11  13
ATOM     13  O   UNL     1     -53.840   2.026 -21.493  1.00  0.00    -0.478 OA
ATOM     14  H   UNL     1     -53.714   1.889 -22.509  1.00  0.00     0.297 HD
ENDBRANCH  11  13
ENDBRANCH   6  11
TORSDOF 4
ENDMDL
