MODEL 1
REMARK VINA RESULT:    -4.989      0.000      0.000
REMARK INTER + INTRA:          -4.989
REMARK INTER:                  -4.989
REMARK INTRA:                   0.000
REMARK UNBOUND:                 0.000
REMARK SMILES Cn1c(=O)c2c(ncn2C)n(C)c1=O
REMARK SMILES IDX 10 1 9 2 8 3 7 4 6 5 5 6 3 7 4 8 2 9 13 10 14 11 11 12 12 13
REMARK SMILES IDX 1 14
REMARK H PARENT
ROOT
ATOM      1  C   UNL     1     -52.570   1.678 -19.287  1.00  0.00     0.151 C 
ATOM      2  N   UNL     1     -52.646   1.555 -20.728  1.00  0.00    -0.328 N 
ATOM      3  C   UNL     1     -53.627   2.013 -21.561  1.00  0.00     0.202 A 
ATOM      4  N   UNL     1     -53.293   1.681 -22.815  1.00  0.00    -0.218 NA
ATOM      5  C   UNL     1     -52.143   1.033 -22.799  1.00  0.00     0.167 A 
ATOM      6  C   UNL     1     -51.718   0.943 -21.489  1.00  0.00     0.152 A 
ATOM      7  C   UNL     1     -50.512   0.295 -21.220  1.00  0.00     0.282 A 
ATOM      8  O   UNL     1     -50.099   0.198 -20.032  1.00  0.00    -0.267 OA
ATOM      9  N   UNL     1     -49.789  -0.229 -22.228  1.00  0.00    -0.261 N 
ATOM     10  C   UNL     1     -50.210  -0.139 -23.504  1.00  0.00     0.332 A 
ATOM     11  O   UNL     1     -49.515  -0.636 -24.421  1.00  0.00    -0.247 OA
ATOM     12  N   UNL     1     -51.369   0.485 -23.779  1.00  0.00    -0.279 N 
ATOM     13  C   UNL     1     -51.787   0.558 -25.187  1.00  0.00     0.157 C 
ATOM     14  C   UNL     1     -48.537  -0.898 -21.891  1.00  0.00     0.159 C 
ENDROOT
TORSDOF 0
ENDMDL
