MODEL 1
REMARK VINA RESULT:    -4.970      0.000      0.000
REMARK INTER + INTRA:          -4.970
REMARK INTER:                  -4.970
REMARK INTRA:                   0.000
REMARK UNBOUND:                 0.000
REMARK SMILES Cn1c(=O)c2c(ncn2C)n(C)c1=O
REMARK SMILES IDX 10 1 9 2 8 3 7 4 6 5 5 6 3 7 4 8 2 9 13 10 14 11 11 12 12 13
REMARK SMILES IDX 1 14
REMARK H PARENT
ROOT
ATOM      1  C   UNL     1     -51.689   0.732 -23.109  1.00  0.00     0.151 C 
ATOM      2  N   UNL     1     -51.890   1.041 -21.691  1.00  0.00    -0.328 N 
ATOM      3  C   UNL     1     -52.966   1.665 -21.176  1.00  0.00     0.202 A 
ATOM      4  N   UNL     1     -52.797   1.774 -19.834  1.00  0.00    -0.218 NA
ATOM      5  C   UNL     1     -51.620   1.219 -19.518  1.00  0.00     0.167 A 
ATOM      6  C   UNL     1     -51.049   0.759 -20.680  1.00  0.00     0.152 A 
ATOM      7  C   UNL     1     -49.825   0.140 -20.633  1.00  0.00     0.282 A 
ATOM      8  O   UNL     1     -49.337  -0.266 -21.714  1.00  0.00    -0.267 OA
ATOM      9  N   UNL     1     -49.197  -0.006 -19.439  1.00  0.00    -0.261 N 
ATOM     10  C   UNL     1     -49.751   0.445 -18.285  1.00  0.00     0.332 A 
ATOM     11  O   UNL     1     -49.167   0.310 -17.166  1.00  0.00    -0.247 OA
ATOM     12  N   UNL     1     -50.952   1.047 -18.364  1.00  0.00    -0.279 N 
ATOM     13  C   UNL     1     -51.564   1.540 -17.122  1.00  0.00     0.157 C 
ATOM     14  C   UNL     1     -47.907  -0.660 -19.406  1.00  0.00     0.159 C 
ENDROOT
TORSDOF 0
ENDMDL
