MODEL 1
REMARK VINA RESULT:    -5.168      0.000      0.000
REMARK INTER + INTRA:          -5.168
REMARK INTER:                  -5.168
REMARK INTRA:                   0.000
REMARK UNBOUND:                 0.000
REMARK SMILES Cn1c(=O)c2c(ncn2C)n(C)c1=O
REMARK SMILES IDX 10 1 9 2 8 3 7 4 6 5 5 6 3 7 4 8 2 9 13 10 14 11 11 12 12 13
REMARK SMILES IDX 1 14
REMARK H PARENT
ROOT
ATOM      1  C   UNL     1     -50.928  -0.529 -19.145  1.00  0.00     0.151 C 
ATOM      2  N   UNL     1     -52.012   0.020 -19.933  1.00  0.00    -0.328 N 
ATOM      3  C   UNL     1     -53.009   0.858 -19.522  1.00  0.00     0.202 A 
ATOM      4  N   UNL     1     -53.794   1.115 -20.577  1.00  0.00    -0.218 NA
ATOM      5  C   UNL     1     -53.327   0.471 -21.631  1.00  0.00     0.167 A 
ATOM      6  C   UNL     1     -52.200  -0.227 -21.244  1.00  0.00     0.152 A 
ATOM      7  C   UNL     1     -51.526  -0.990 -22.197  1.00  0.00     0.282 A 
ATOM      8  O   UNL     1     -50.493  -1.638 -21.871  1.00  0.00    -0.267 OA
ATOM      9  N   UNL     1     -51.976  -1.036 -23.465  1.00  0.00    -0.261 N 
ATOM     10  C   UNL     1     -53.077  -0.354 -23.836  1.00  0.00     0.332 A 
ATOM     11  O   UNL     1     -53.472  -0.416 -25.024  1.00  0.00    -0.247 OA
ATOM     12  N   UNL     1     -53.736   0.387 -22.928  1.00  0.00    -0.279 N 
ATOM     13  C   UNL     1     -54.932   1.114 -23.381  1.00  0.00     0.157 C 
ATOM     14  C   UNL     1     -51.234  -1.851 -24.422  1.00  0.00     0.159 C 
ENDROOT
TORSDOF 0
ENDMDL
