MODEL 1
REMARK VINA RESULT:    -6.052      0.000      0.000
REMARK INTER + INTRA:         -11.609
REMARK INTER:                  -9.944
REMARK INTRA:                  -1.665
REMARK UNBOUND:                -1.665
REMARK SMILES C#Cc1cccc(Nc2ncnc3cc(OCCOC)c(OCCOC)cc23)c1
REMARK SMILES IDX 9 1 10 2 11 3 12 4 13 5 14 6 15 7 21 8 27 9 28 10 8 11 7 13
REMARK SMILES IDX 3 14 4 15 29 16 5 17 6 18 2 19 1 20 22 21 23 22 24 23 25 24
REMARK SMILES IDX 26 25 16 26 17 27 18 28 19 29 20 30
REMARK H PARENT 8 12
ROOT
ATOM      1  C   UNL     1     -51.664   0.409 -24.984  1.00  0.00     0.141 A 
ATOM      2  N   UNL     1     -52.760   0.536 -25.740  1.00  0.00    -0.219 NA
ATOM      3  C   UNL     1     -53.047  -0.135 -26.853  1.00  0.00     0.224 A 
ATOM      4  N   UNL     1     -52.139  -1.045 -27.272  1.00  0.00    -0.236 NA
ATOM      5  C   UNL     1     -50.994  -1.249 -26.574  1.00  0.00     0.080 A 
ATOM      6  C   UNL     1     -50.102  -2.189 -27.045  1.00  0.00     0.079 A 
ATOM      7  C   UNL     1     -48.917  -2.466 -26.407  1.00  0.00     0.163 A 
ATOM      8  C   UNL     1     -48.682  -1.716 -25.235  1.00  0.00     0.162 A 
ATOM      9  C   UNL     1     -49.566  -0.787 -24.772  1.00  0.00     0.064 A 
ATOM     10  C   UNL     1     -50.733  -0.538 -25.431  1.00  0.00     0.047 A 
ENDROOT
BRANCH   1  11
ATOM     11  N   UNL     1     -51.423   1.153 -23.814  1.00  0.00    -0.340 N 
ATOM     12  H   UNL     1     -50.939   2.076 -23.906  1.00  0.00     0.168 HD
BRANCH  11  13
ATOM     13  C   UNL     1     -51.771   0.783 -22.491  1.00  0.00     0.041 A 
ATOM     14  C   UNL     1     -51.656  -0.579 -20.502  1.00  0.00     0.026 A 
ATOM     15  C   UNL     1     -52.580   0.194 -19.859  1.00  0.00     0.017 A 
ATOM     16  C   UNL     1     -51.255  -0.285 -21.809  1.00  0.00     0.043 A 
ATOM     17  C   UNL     1     -53.112   1.265 -20.517  1.00  0.00     0.003 A 
ATOM     18  C   UNL     1     -52.716   1.550 -21.799  1.00  0.00     0.026 A 
BRANCH  14  19
ATOM     19  C   UNL     1     -51.098  -1.696 -19.824  1.00  0.00    -0.070 C 
ATOM     20  C   UNL     1     -50.633  -2.667 -19.248  1.00  0.00     0.010 C 
ENDBRANCH  14  19
ENDBRANCH  11  13
ENDBRANCH   1  11
BRANCH   8  21
ATOM     21  O   UNL     1     -47.510  -1.930 -24.530  1.00  0.00    -0.487 OA
BRANCH  21  22
ATOM     22  C   UNL     1     -47.421  -2.614 -23.324  1.00  0.00     0.258 C 
BRANCH  22  23
ATOM     23  C   UNL     1     -46.832  -1.758 -22.204  1.00  0.00     0.201 C 
BRANCH  23  24
ATOM     24  O   UNL     1     -47.722  -1.645 -21.153  1.00  0.00    -0.381 OA
ATOM     25  C   UNL     1     -47.778  -0.324 -20.710  1.00  0.00     0.195 C 
ENDBRANCH  23  24
ENDBRANCH  22  23
ENDBRANCH  21  22
ENDBRANCH   8  21
BRANCH   7  26
ATOM     26  O   UNL     1     -47.972  -3.347 -26.749  1.00  0.00    -0.487 OA
BRANCH  26  27
ATOM     27  C   UNL     1     -47.754  -4.689 -26.721  1.00  0.00     0.258 C 
BRANCH  27  28
ATOM     28  C   UNL     1     -48.075  -5.450 -25.475  1.00  0.00     0.201 C 
BRANCH  28  29
ATOM     29  O   UNL     1     -49.396  -5.702 -25.304  1.00  0.00    -0.381 OA
ATOM     30  C   UNL     1     -49.929  -5.298 -24.099  1.00  0.00     0.195 C 
ENDBRANCH  28  29
ENDBRANCH  27  28
ENDBRANCH  26  27
ENDBRANCH   7  26
TORSDOF 11
ENDMDL
