MODEL 1
REMARK VINA RESULT:    -6.754      0.000      0.000
REMARK INTER + INTRA:         -12.364
REMARK INTER:                 -11.097
REMARK INTRA:                  -1.267
REMARK UNBOUND:                -1.267
REMARK SMILES C#Cc1cccc(Nc2ncnc3cc(OCCOC)c(OCCOC)cc23)c1
REMARK SMILES IDX 9 1 10 2 11 3 12 4 13 5 14 6 15 7 21 8 27 9 28 10 8 11 7 13
REMARK SMILES IDX 3 14 4 15 29 16 5 17 6 18 2 19 1 20 22 21 23 22 24 23 25 24
REMARK SMILES IDX 26 25 16 26 17 27 18 28 19 29 20 30
REMARK H PARENT 8 12
ROOT
ATOM      1  C   UNL     1     -52.693  -0.277 -23.533  1.00  0.00     0.141 A 
ATOM      2  N   UNL     1     -53.762   0.523 -23.571  1.00  0.00    -0.219 NA
ATOM      3  C   UNL     1     -54.542   0.831 -22.538  1.00  0.00     0.224 A 
ATOM      4  N   UNL     1     -54.259   0.309 -21.333  1.00  0.00    -0.236 NA
ATOM      5  C   UNL     1     -53.193  -0.513 -21.199  1.00  0.00     0.080 A 
ATOM      6  C   UNL     1     -52.919  -1.038 -19.956  1.00  0.00     0.079 A 
ATOM      7  C   UNL     1     -51.853  -1.884 -19.733  1.00  0.00     0.163 A 
ATOM      8  C   UNL     1     -51.019  -2.216 -20.836  1.00  0.00     0.162 A 
ATOM      9  C   UNL     1     -51.337  -1.661 -22.057  1.00  0.00     0.064 A 
ATOM     10  C   UNL     1     -52.400  -0.820 -22.272  1.00  0.00     0.047 A 
ENDROOT
BRANCH   1  11
ATOM     11  N   UNL     1     -51.900  -0.572 -24.665  1.00  0.00    -0.340 N 
ATOM     12  H   UNL     1     -50.863  -0.597 -24.539  1.00  0.00     0.168 HD
BRANCH  11  13
ATOM     13  C   UNL     1     -52.366  -0.844 -25.970  1.00  0.00     0.041 A 
ATOM     14  C   UNL     1     -53.027   0.058 -28.131  1.00  0.00     0.026 A 
ATOM     15  C   UNL     1     -53.288  -1.202 -28.607  1.00  0.00     0.017 A 
ATOM     16  C   UNL     1     -52.576   0.232 -26.844  1.00  0.00     0.043 A 
ATOM     17  C   UNL     1     -53.096  -2.269 -27.790  1.00  0.00     0.003 A 
ATOM     18  C   UNL     1     -52.638  -2.084 -26.481  1.00  0.00     0.026 A 
BRANCH  14  19
ATOM     19  C   UNL     1     -53.227   1.196 -28.990  1.00  0.00    -0.070 C 
ATOM     20  C   UNL     1     -53.391   2.152 -29.691  1.00  0.00     0.010 C 
ENDBRANCH  14  19
ENDBRANCH  11  13
ENDBRANCH   1  11
BRANCH   8  21
ATOM     21  O   UNL     1     -49.992  -3.053 -20.558  1.00  0.00    -0.487 OA
BRANCH  21  22
ATOM     22  C   UNL     1     -49.603  -4.209 -21.186  1.00  0.00     0.258 C 
BRANCH  22  23
ATOM     23  C   UNL     1     -50.739  -5.126 -21.471  1.00  0.00     0.201 C 
BRANCH  23  24
ATOM     24  O   UNL     1     -50.876  -5.466 -22.817  1.00  0.00    -0.381 OA
ATOM     25  C   UNL     1     -52.054  -5.058 -23.390  1.00  0.00     0.195 C 
ENDBRANCH  23  24
ENDBRANCH  22  23
ENDBRANCH  21  22
ENDBRANCH   8  21
BRANCH   7  26
ATOM     26  O   UNL     1     -51.522  -2.434 -18.545  1.00  0.00    -0.487 OA
BRANCH  26  27
ATOM     27  C   UNL     1     -50.839  -1.986 -17.438  1.00  0.00     0.258 C 
BRANCH  27  28
ATOM     28  C   UNL     1     -50.111  -0.694 -17.548  1.00  0.00     0.201 C 
BRANCH  28  29
ATOM     29  O   UNL     1     -50.597   0.221 -16.638  1.00  0.00    -0.381 OA
ATOM     30  C   UNL     1     -51.819   0.785 -16.937  1.00  0.00     0.195 C 
ENDBRANCH  28  29
ENDBRANCH  27  28
ENDBRANCH  26  27
ENDBRANCH   7  26
TORSDOF 11
ENDMDL
