MODEL 1
REMARK VINA RESULT:    -6.266      0.000      0.000
REMARK INTER + INTRA:          -8.371
REMARK INTER:                  -7.915
REMARK INTRA:                  -0.456
REMARK UNBOUND:                -0.456
REMARK SMILES CC(C)Cc1ccc(C(C)C(=O)O)cc1
REMARK SMILES IDX 5 1 6 2 7 3 8 4 14 5 15 6 4 7 2 8 1 9 3 10 9 11 10 12 11 13
REMARK SMILES IDX 12 14 13 15
REMARK H PARENT 13 16
ROOT
ATOM      1  C   UNL     1     -52.270  -0.449 -25.097  1.00  0.00    -0.048 A 
ATOM      2  C   UNL     1     -53.292   0.357 -24.652  1.00  0.00     0.004 A 
ATOM      3  C   UNL     1     -53.733   0.332 -23.343  1.00  0.00     0.005 A 
ATOM      4  C   UNL     1     -53.125  -0.538 -22.435  1.00  0.00    -0.034 A 
ATOM      5  C   UNL     1     -52.099  -1.348 -22.884  1.00  0.00     0.005 A 
ATOM      6  C   UNL     1     -51.685  -1.299 -24.188  1.00  0.00     0.004 A 
ENDROOT
BRANCH   1   7
ATOM      7  C   UNL     1     -51.876  -0.344 -26.515  1.00  0.00     0.038 C 
BRANCH   7   8
ATOM      8  C   UNL     1     -53.054  -0.598 -27.460  1.00  0.00    -0.013 C 
ATOM      9  C   UNL     1     -52.855   0.309 -28.664  1.00  0.00     0.008 C 
ATOM     10  C   UNL     1     -53.072  -2.019 -27.925  1.00  0.00     0.008 C 
ENDBRANCH   7   8
ENDBRANCH   1   7
BRANCH   4  11
ATOM     11  C   UNL     1     -53.521  -0.639 -21.027  1.00  0.00     0.126 C 
ATOM     12  C   UNL     1     -52.828  -1.781 -20.305  1.00  0.00     0.025 C 
BRANCH  11  13
ATOM     13  C   UNL     1     -53.321   0.600 -20.256  1.00  0.00     0.310 C 
ATOM     14  O   UNL     1     -52.361   0.800 -19.475  1.00  0.00    -0.252 OA
BRANCH  13  15
ATOM     15  O   UNL     1     -54.261   1.611 -20.408  1.00  0.00    -0.481 OA
ATOM     16  H   UNL     1     -54.990   1.825 -19.740  1.00  0.00     0.296 HD
ENDBRANCH  13  15
ENDBRANCH  11  13
ENDBRANCH   4  11
TORSDOF 5
ENDMDL
