MODEL 1
REMARK VINA RESULT:    -6.322      0.000      0.000
REMARK INTER + INTRA:          -8.437
REMARK INTER:                  -7.985
REMARK INTRA:                  -0.452
REMARK UNBOUND:                -0.452
REMARK SMILES CC(C)Cc1ccc(C(C)C(=O)O)cc1
REMARK SMILES IDX 5 1 6 2 7 3 8 4 14 5 15 6 4 7 2 8 1 9 3 10 9 11 10 12 11 13
REMARK SMILES IDX 12 14 13 15
REMARK H PARENT 13 16
ROOT
ATOM      1  C   UNL     1     -51.696   0.106 -25.142  1.00  0.00    -0.048 A 
ATOM      2  C   UNL     1     -52.800   0.775 -24.666  1.00  0.00     0.004 A 
ATOM      3  C   UNL     1     -53.262   0.609 -23.376  1.00  0.00     0.005 A 
ATOM      4  C   UNL     1     -52.592  -0.267 -22.518  1.00  0.00    -0.034 A 
ATOM      5  C   UNL     1     -51.483  -0.939 -22.997  1.00  0.00     0.005 A 
ATOM      6  C   UNL     1     -51.050  -0.752 -24.283  1.00  0.00     0.004 A 
ENDROOT
BRANCH   1   7
ATOM      7  C   UNL     1     -51.285   0.355 -26.537  1.00  0.00     0.038 C 
BRANCH   7   8
ATOM      8  C   UNL     1     -52.455   0.210 -27.516  1.00  0.00    -0.013 C 
ATOM      9  C   UNL     1     -52.179   1.157 -28.673  1.00  0.00     0.008 C 
ATOM     10  C   UNL     1     -52.541  -1.185 -28.045  1.00  0.00     0.008 C 
ENDBRANCH   7   8
ENDBRANCH   1   7
BRANCH   4  11
ATOM     11  C   UNL     1     -53.004  -0.512 -21.133  1.00  0.00     0.126 C 
ATOM     12  C   UNL     1     -52.165  -1.578 -20.452  1.00  0.00     0.025 C 
BRANCH  11  13
ATOM     13  C   UNL     1     -53.015   0.694 -20.287  1.00  0.00     0.310 C 
ATOM     14  O   UNL     1     -52.115   0.991 -19.466  1.00  0.00    -0.252 OA
BRANCH  13  15
ATOM     15  O   UNL     1     -54.097   1.557 -20.409  1.00  0.00    -0.481 OA
ATOM     16  H   UNL     1     -54.026   2.550 -20.583  1.00  0.00     0.296 HD
ENDBRANCH  13  15
ENDBRANCH  11  13
ENDBRANCH   4  11
TORSDOF 5
ENDMDL
