MODEL 1
REMARK VINA RESULT:    -6.254      0.000      0.000
REMARK INTER + INTRA:          -8.377
REMARK INTER:                  -7.900
REMARK INTRA:                  -0.477
REMARK UNBOUND:                -0.477
REMARK SMILES CC(C)Cc1ccc(C(C)C(=O)O)cc1
REMARK SMILES IDX 5 1 6 2 7 3 8 4 14 5 15 6 4 7 2 8 1 9 3 10 9 11 10 12 11 13
REMARK SMILES IDX 12 14 13 15
REMARK H PARENT 13 16
ROOT
ATOM      1  C   UNL     1     -53.553  -0.660 -25.271  1.00  0.00    -0.048 A 
ATOM      2  C   UNL     1     -53.809   0.384 -24.413  1.00  0.00     0.004 A 
ATOM      3  C   UNL     1     -53.429   0.356 -23.086  1.00  0.00     0.005 A 
ATOM      4  C   UNL     1     -52.761  -0.766 -22.590  1.00  0.00    -0.034 A 
ATOM      5  C   UNL     1     -52.505  -1.815 -23.453  1.00  0.00     0.005 A 
ATOM      6  C   UNL     1     -52.895  -1.756 -24.764  1.00  0.00     0.004 A 
ENDROOT
BRANCH   1   7
ATOM      7  C   UNL     1     -54.001  -0.530 -26.670  1.00  0.00     0.038 C 
BRANCH   7   8
ATOM      8  C   UNL     1     -52.868  -0.800 -27.665  1.00  0.00    -0.013 C 
ATOM      9  C   UNL     1     -53.183  -2.124 -28.341  1.00  0.00     0.008 C 
ATOM     10  C   UNL     1     -52.803   0.270 -28.708  1.00  0.00     0.008 C 
ENDBRANCH   7   8
ENDBRANCH   1   7
BRANCH   4  11
ATOM     11  C   UNL     1     -52.317  -0.892 -21.198  1.00  0.00     0.126 C 
ATOM     12  C   UNL     1     -50.906  -0.375 -20.985  1.00  0.00     0.025 C 
BRANCH  11  13
ATOM     13  C   UNL     1     -53.211  -0.246 -20.221  1.00  0.00     0.310 C 
ATOM     14  O   UNL     1     -52.899   0.752 -19.529  1.00  0.00    -0.252 OA
BRANCH  13  15
ATOM     15  O   UNL     1     -54.482  -0.782 -20.059  1.00  0.00    -0.481 OA
ATOM     16  H   UNL     1     -55.343  -0.255 -20.128  1.00  0.00     0.296 HD
ENDBRANCH  13  15
ENDBRANCH  11  13
ENDBRANCH   4  11
TORSDOF 5
ENDMDL
