MODEL 1
REMARK VINA RESULT:    -6.973      0.000      0.000
REMARK INTER + INTRA:         -14.881
REMARK INTER:                 -12.273
REMARK INTRA:                  -2.608
REMARK UNBOUND:                -2.608
REMARK SMILES C=CC(=O)Nc1cc(Nc2ncc(C(=O)OC(C)C)c(-c3cn(C)c4ccccc34)n2)c(OC)cc1N(C)CCN(C)C
REMARK SMILES IDX 6 1 7 2 8 3 32 4 35 5 36 6 5 7 3 8 4 9 2 11 1 12 37 13 38 14
REMARK SMILES IDX 39 15 40 16 41 17 42 18 43 19 9 20 10 22 11 23 31 24 12 25
REMARK SMILES IDX 20 26 13 27 21 28 22 29 30 30 23 31 29 32 25 33 28 34 26 35
REMARK SMILES IDX 27 36 24 37 14 38 15 39 16 40 17 41 18 42 19 43 33 44 34 45
REMARK H PARENT 5 10 9 21
ROOT
ATOM      1  C   UNL     1     -51.572  -2.533 -24.548  1.00  0.00     0.067 A 
ATOM      2  C   UNL     1     -51.393  -3.887 -24.462  1.00  0.00     0.058 A 
ATOM      3  C   UNL     1     -50.664  -4.536 -23.497  1.00  0.00     0.086 A 
ATOM      4  C   UNL     1     -50.067  -3.707 -22.536  1.00  0.00     0.144 A 
ATOM      5  C   UNL     1     -50.217  -2.342 -22.579  1.00  0.00     0.076 A 
ATOM      6  C   UNL     1     -50.960  -1.752 -23.570  1.00  0.00     0.064 A 
ENDROOT
BRANCH   1   7
ATOM      7  N   UNL     1     -52.318  -1.845 -25.524  1.00  0.00    -0.321 N 
ATOM      8  C   UNL     1     -51.936  -1.619 -26.866  1.00  0.00     0.247 C 
ATOM      9  O   UNL     1     -50.860  -2.012 -27.359  1.00  0.00    -0.270 OA
ATOM     10  H   UNL     1     -53.272  -1.449 -25.262  1.00  0.00     0.170 HD
BRANCH   8  11
ATOM     11  C   UNL     1     -52.833  -0.878 -27.777  1.00  0.00     0.064 C 
ATOM     12  C   UNL     1     -53.476   0.168 -27.228  1.00  0.00     0.014 C 
ENDBRANCH   8  11
ENDBRANCH   1   7
BRANCH   6  13
ATOM     13  N   UNL     1     -51.067  -0.329 -23.562  1.00  0.00    -0.372 N 
ATOM     14  C   UNL     1     -50.207   0.421 -24.485  1.00  0.00     0.143 C 
BRANCH  13  15
ATOM     15  C   UNL     1     -51.948   0.425 -22.737  1.00  0.00     0.131 C 
BRANCH  15  16
ATOM     16  C   UNL     1     -51.310   1.074 -21.535  1.00  0.00     0.105 C 
BRANCH  16  17
ATOM     17  N   UNL     1     -52.400   1.374 -20.609  1.00  0.00    -0.308 NA
ATOM     18  C   UNL     1     -53.495   1.921 -21.348  1.00  0.00     0.105 C 
ATOM     19  C   UNL     1     -52.690   0.193 -19.853  1.00  0.00     0.105 C 
ENDBRANCH  16  17
ENDBRANCH  15  16
ENDBRANCH  13  15
ENDBRANCH   6  13
BRANCH   3  20
ATOM     20  N   UNL     1     -50.475  -5.922 -23.387  1.00  0.00    -0.321 N 
ATOM     21  H   UNL     1     -51.248  -6.467 -22.913  1.00  0.00     0.170 HD
BRANCH  20  22
ATOM     22  C   UNL     1     -49.373  -6.679 -23.834  1.00  0.00     0.227 A 
ATOM     23  N   UNL     1     -48.611  -7.466 -23.081  1.00  0.00    -0.220 NA
ATOM     24  N   UNL     1     -49.038  -6.606 -25.148  1.00  0.00    -0.212 NA
ATOM     25  C   UNL     1     -47.563  -8.169 -23.525  1.00  0.00     0.133 A 
ATOM     26  C   UNL     1     -47.999  -7.287 -25.655  1.00  0.00     0.093 A 
ATOM     27  C   UNL     1     -47.219  -8.099 -24.861  1.00  0.00     0.104 A 
BRANCH  26  28
ATOM     28  C   UNL     1     -47.735  -7.125 -27.077  1.00  0.00     0.027 A 
ATOM     29  C   UNL     1     -47.894  -8.050 -28.105  1.00  0.00     0.096 A 
ATOM     30  C   UNL     1     -47.226  -5.986 -27.708  1.00  0.00     0.009 A 
ATOM     31  N   UNL     1     -47.510  -7.514 -29.276  1.00  0.00    -0.350 N 
ATOM     32  C   UNL     1     -46.861  -4.735 -27.242  1.00  0.00     0.011 A 
ATOM     33  C   UNL     1     -47.094  -6.242 -29.069  1.00  0.00     0.048 A 
ATOM     34  C   UNL     1     -46.375  -3.764 -28.101  1.00  0.00     0.001 A 
ATOM     35  C   UNL     1     -46.609  -5.283 -29.942  1.00  0.00     0.027 A 
ATOM     36  C   UNL     1     -46.250  -4.045 -29.465  1.00  0.00     0.002 A 
ATOM     37  C   UNL     1     -47.555  -8.227 -30.560  1.00  0.00     0.149 C 
ENDBRANCH  26  28
BRANCH  27  38
ATOM     38  C   UNL     1     -46.102  -8.882 -25.352  1.00  0.00     0.342 C 
ATOM     39  O   UNL     1     -46.089 -10.130 -25.468  1.00  0.00    -0.246 OA
BRANCH  38  40
ATOM     40  O   UNL     1     -44.933  -8.224 -25.734  1.00  0.00    -0.459 OA
BRANCH  40  41
ATOM     41  C   UNL     1     -44.199  -8.639 -26.883  1.00  0.00     0.170 C 
ATOM     42  C   UNL     1     -42.869  -9.163 -26.429  1.00  0.00     0.052 C 
ATOM     43  C   UNL     1     -43.944  -7.436 -27.792  1.00  0.00     0.052 C 
ENDBRANCH  40  41
ENDBRANCH  38  40
ENDBRANCH  27  38
ENDBRANCH  20  22
ENDBRANCH   3  20
BRANCH   4  44
ATOM     44  O   UNL     1     -49.308  -4.235 -21.514  1.00  0.00    -0.494 OA
ATOM     45  C   UNL     1     -47.905  -4.196 -21.449  1.00  0.00     0.278 C 
ENDBRANCH   4  44
TORSDOF 13
ENDMDL
