MODEL 1
REMARK VINA RESULT:    -7.431      0.000      0.000
REMARK INTER + INTRA:         -13.609
REMARK INTER:                 -12.209
REMARK INTRA:                  -1.399
REMARK UNBOUND:                -1.399
REMARK SMILES C#Cc1cccc(Nc2ncnc3cc(OCCOC)c(OCCOC)cc23)c1
REMARK SMILES IDX 9 1 10 2 11 3 12 4 13 5 14 6 15 7 21 8 27 9 28 10 8 11 7 13
REMARK SMILES IDX 3 14 4 15 29 16 5 17 6 18 2 19 1 20 22 21 23 22 24 23 25 24
REMARK SMILES IDX 26 25 16 26 17 27 18 28 19 29 20 30
REMARK H PARENT 8 12
ROOT
ATOM      1  C   UNL     1      47.962 361.367  32.343  1.00  0.00     0.141 A 
ATOM      2  N   UNL     1      47.797 362.549  32.942  1.00  0.00    -0.219 NA
ATOM      3  C   UNL     1      47.380 363.669  32.355  1.00  0.00     0.224 A 
ATOM      4  N   UNL     1      47.089 363.645  31.044  1.00  0.00    -0.236 NA
ATOM      5  C   UNL     1      47.226 362.489  30.354  1.00  0.00     0.080 A 
ATOM      6  C   UNL     1      46.923 362.483  29.011  1.00  0.00     0.079 A 
ATOM      7  C   UNL     1      47.035 361.349  28.235  1.00  0.00     0.163 A 
ATOM      8  C   UNL     1      47.482 360.153  28.860  1.00  0.00     0.162 A 
ATOM      9  C   UNL     1      47.771 360.212  30.206  1.00  0.00     0.064 A 
ATOM     10  C   UNL     1      47.656 361.346  30.973  1.00  0.00     0.047 A 
ENDROOT
BRANCH   1  11
ATOM     11  N   UNL     1      48.412 360.209  33.016  1.00  0.00    -0.340 N 
ATOM     12  H   UNL     1      47.690 359.538  33.366  1.00  0.00     0.168 HD
BRANCH  11  13
ATOM     13  C   UNL     1      49.754 359.852  33.269  1.00  0.00     0.041 A 
ATOM     14  C   UNL     1      51.815 358.902  32.392  1.00  0.00     0.026 A 
ATOM     15  C   UNL     1      52.443 359.083  33.599  1.00  0.00     0.017 A 
ATOM     16  C   UNL     1      50.503 359.278  32.232  1.00  0.00     0.043 A 
ATOM     17  C   UNL     1      51.751 359.636  34.626  1.00  0.00     0.003 A 
ATOM     18  C   UNL     1      50.415 360.016  34.456  1.00  0.00     0.026 A 
BRANCH  14  19
ATOM     19  C   UNL     1      52.542 358.316  31.295  1.00  0.00    -0.070 C 
ATOM     20  C   UNL     1      53.136 357.838  30.373  1.00  0.00     0.010 C 
ENDBRANCH  14  19
ENDBRANCH  11  13
ENDBRANCH   1  11
BRANCH   8  21
ATOM     21  O   UNL     1      47.578 359.074  28.048  1.00  0.00    -0.487 OA
BRANCH  21  22
ATOM     22  C   UNL     1      48.584 358.149  27.925  1.00  0.00     0.258 C 
BRANCH  22  23
ATOM     23  C   UNL     1      48.949 357.872  26.510  1.00  0.00     0.201 C 
BRANCH  23  24
ATOM     24  O   UNL     1      48.695 358.929  25.635  1.00  0.00    -0.381 OA
ATOM     25  C   UNL     1      49.778 359.734  25.387  1.00  0.00     0.195 C 
ENDBRANCH  23  24
ENDBRANCH  22  23
ENDBRANCH  21  22
ENDBRANCH   8  21
BRANCH   7  26
ATOM     26  O   UNL     1      46.755 361.269  26.918  1.00  0.00    -0.487 OA
BRANCH  26  27
ATOM     27  C   UNL     1      46.744 362.174  25.882  1.00  0.00     0.258 C 
BRANCH  27  28
ATOM     28  C   UNL     1      46.656 361.640  24.496  1.00  0.00     0.201 C 
BRANCH  28  29
ATOM     29  O   UNL     1      45.433 361.938  23.933  1.00  0.00    -0.381 OA
ATOM     30  C   UNL     1      44.869 363.139  24.305  1.00  0.00     0.195 C 
ENDBRANCH  28  29
ENDBRANCH  27  28
ENDBRANCH  26  27
ENDBRANCH   7  26
TORSDOF 11
ENDMDL
