MODEL 1
REMARK VINA RESULT:    -8.082      0.000      0.000
REMARK INTER + INTRA:         -14.329
REMARK INTER:                 -13.279
REMARK INTRA:                  -1.049
REMARK UNBOUND:                -1.049
REMARK SMILES C#Cc1cccc(Nc2ncnc3cc(OCCOC)c(OCCOC)cc23)c1
REMARK SMILES IDX 9 1 10 2 11 3 12 4 13 5 14 6 15 7 21 8 27 9 28 10 8 11 7 13
REMARK SMILES IDX 3 14 4 15 29 16 5 17 6 18 2 19 1 20 22 21 23 22 24 23 25 24
REMARK SMILES IDX 26 25 16 26 17 27 18 28 19 29 20 30
REMARK H PARENT 8 12
ROOT
ATOM      1  C   UNL     1      32.690 -24.676  46.473  1.00  0.00     0.141 A 
ATOM      2  N   UNL     1      31.821 -24.803  45.467  1.00  0.00    -0.219 NA
ATOM      3  C   UNL     1      32.034 -25.466  44.333  1.00  0.00     0.224 A 
ATOM      4  N   UNL     1      33.217 -26.074  44.149  1.00  0.00    -0.236 NA
ATOM      5  C   UNL     1      34.160 -25.999  45.116  1.00  0.00     0.080 A 
ATOM      6  C   UNL     1      35.367 -26.628  44.910  1.00  0.00     0.079 A 
ATOM      7  C   UNL     1      36.381 -26.601  45.843  1.00  0.00     0.163 A 
ATOM      8  C   UNL     1      36.156 -25.892  47.055  1.00  0.00     0.162 A 
ATOM      9  C   UNL     1      34.931 -25.281  47.212  1.00  0.00     0.064 A 
ATOM     10  C   UNL     1      33.925 -25.313  46.277  1.00  0.00     0.047 A 
ENDROOT
BRANCH   1  11
ATOM     11  N   UNL     1      32.411 -23.956  47.657  1.00  0.00    -0.340 N 
ATOM     12  H   UNL     1      33.166 -23.347  48.045  1.00  0.00     0.168 HD
BRANCH  11  13
ATOM     13  C   UNL     1      31.201 -23.970  48.384  1.00  0.00     0.041 A 
ATOM     14  C   UNL     1      29.821 -22.892  50.073  1.00  0.00     0.026 A 
ATOM     15  C   UNL     1      28.844 -23.843  49.919  1.00  0.00     0.017 A 
ATOM     16  C   UNL     1      30.971 -22.955  49.323  1.00  0.00     0.043 A 
ATOM     17  C   UNL     1      29.030 -24.841  49.020  1.00  0.00     0.003 A 
ATOM     18  C   UNL     1      30.204 -24.899  48.260  1.00  0.00     0.026 A 
BRANCH  14  19
ATOM     19  C   UNL     1      29.632 -21.828  51.026  1.00  0.00    -0.070 C 
ATOM     20  C   UNL     1      29.466 -20.955  51.826  1.00  0.00     0.010 C 
ENDBRANCH  14  19
ENDBRANCH  11  13
ENDBRANCH   1  11
BRANCH   8  21
ATOM     21  O   UNL     1      37.189 -25.895  47.931  1.00  0.00    -0.487 OA
BRANCH  21  22
ATOM     22  C   UNL     1      37.230 -26.294  49.243  1.00  0.00     0.258 C 
BRANCH  22  23
ATOM     23  C   UNL     1      38.588 -26.184  49.841  1.00  0.00     0.201 C 
BRANCH  23  24
ATOM     24  O   UNL     1      38.600 -26.176  51.236  1.00  0.00    -0.381 OA
ATOM     25  C   UNL     1      37.416 -26.555  51.818  1.00  0.00     0.195 C 
ENDBRANCH  23  24
ENDBRANCH  22  23
ENDBRANCH  21  22
ENDBRANCH   8  21
BRANCH   7  26
ATOM     26  O   UNL     1      37.586 -27.195  45.711  1.00  0.00    -0.487 OA
BRANCH  26  27
ATOM     27  C   UNL     1      38.008 -28.503  45.639  1.00  0.00     0.258 C 
BRANCH  27  28
ATOM     28  C   UNL     1      37.168 -29.539  46.295  1.00  0.00     0.201 C 
BRANCH  28  29
ATOM     29  O   UNL     1      37.332 -29.509  47.664  1.00  0.00    -0.381 OA
ATOM     30  C   UNL     1      38.631 -29.559  48.122  1.00  0.00     0.195 C 
ENDBRANCH  28  29
ENDBRANCH  27  28
ENDBRANCH  26  27
ENDBRANCH   7  26
TORSDOF 11
ENDMDL
