MODEL 1
REMARK VINA RESULT:    -7.247      0.000      0.000
REMARK INTER + INTRA:          -9.691
REMARK INTER:                  -9.153
REMARK INTRA:                  -0.538
REMARK UNBOUND:                -0.538
REMARK SMILES CC(C)Cc1ccc(C(C)C(=O)O)cc1
REMARK SMILES IDX 5 1 6 2 7 3 8 4 14 5 15 6 4 7 2 8 1 9 3 10 9 11 10 12 11 13
REMARK SMILES IDX 12 14 13 15
REMARK H PARENT 13 16
ROOT
ATOM      1  C   UNL     1       0.460  16.264  -8.794  1.00  0.00    -0.048 A 
ATOM      2  C   UNL     1      -0.418  15.864  -7.813  1.00  0.00     0.004 A 
ATOM      3  C   UNL     1      -0.382  14.597  -7.265  1.00  0.00     0.005 A 
ATOM      4  C   UNL     1       0.574  13.685  -7.717  1.00  0.00    -0.034 A 
ATOM      5  C   UNL     1       1.456  14.087  -8.703  1.00  0.00     0.005 A 
ATOM      6  C   UNL     1       1.395  15.351  -9.226  1.00  0.00     0.004 A 
ENDROOT
BRANCH   1   7
ATOM      7  C   UNL     1       0.337  17.639  -9.313  1.00  0.00     0.038 C 
BRANCH   7   8
ATOM      8  C   UNL     1       0.795  18.683  -8.289  1.00  0.00    -0.013 C 
ATOM      9  C   UNL     1       2.245  19.005  -8.607  1.00  0.00     0.008 C 
ATOM     10  C   UNL     1      -0.013  19.936  -8.403  1.00  0.00     0.008 C 
ENDBRANCH   7   8
ENDBRANCH   1   7
BRANCH   4  11
ATOM     11  C   UNL     1       0.693  12.318  -7.199  1.00  0.00     0.126 C 
ATOM     12  C   UNL     1       0.992  11.303  -8.288  1.00  0.00     0.025 C 
BRANCH  11  13
ATOM     13  C   UNL     1       1.689  12.167  -6.123  1.00  0.00     0.310 C 
ATOM     14  O   UNL     1       2.549  11.257  -6.079  1.00  0.00    -0.252 OA
BRANCH  13  15
ATOM     15  O   UNL     1       1.668  13.097  -5.092  1.00  0.00    -0.481 OA
ATOM     16  H   UNL     1       1.250  12.941  -4.184  1.00  0.00     0.296 HD
ENDBRANCH  13  15
ENDBRANCH  11  13
ENDBRANCH   4  11
TORSDOF 5
ENDMDL
