MODEL 1
REMARK VINA RESULT:    -9.254      0.000      0.000
REMARK INTER + INTRA:         -17.961
REMARK INTER:                 -16.287
REMARK INTRA:                  -1.674
REMARK UNBOUND:                -1.674
REMARK SMILES C=CC(=O)Nc1cc(Nc2ncc(C(=O)OC(C)C)c(-c3cn(C)c4ccccc34)n2)c(OC)cc1N(C)CCN(C)C
REMARK SMILES IDX 6 1 7 2 8 3 32 4 35 5 36 6 5 7 3 8 4 9 2 11 1 12 37 13 38 14
REMARK SMILES IDX 39 15 40 16 41 17 42 18 43 19 9 20 10 22 11 23 31 24 12 25
REMARK SMILES IDX 20 26 13 27 21 28 22 29 30 30 23 31 29 32 25 33 28 34 26 35
REMARK SMILES IDX 27 36 24 37 14 38 15 39 16 40 17 41 18 42 19 43 33 44 34 45
REMARK H PARENT 5 10 9 21
ROOT
ATOM      1  C   UNL     1      -4.922  19.478 -13.096  1.00  0.00     0.067 A 
ATOM      2  C   UNL     1      -4.077  18.399 -12.983  1.00  0.00     0.058 A 
ATOM      3  C   UNL     1      -4.265  17.186 -13.605  1.00  0.00     0.086 A 
ATOM      4  C   UNL     1      -5.414  17.076 -14.409  1.00  0.00     0.144 A 
ATOM      5  C   UNL     1      -6.296  18.120 -14.562  1.00  0.00     0.076 A 
ATOM      6  C   UNL     1      -6.035  19.300 -13.903  1.00  0.00     0.064 A 
ENDROOT
BRANCH   1   7
ATOM      7  N   UNL     1      -4.775  20.725 -12.467  1.00  0.00    -0.321 N 
ATOM      8  C   UNL     1      -3.587  21.272 -11.922  1.00  0.00     0.247 C 
ATOM      9  O   UNL     1      -2.506  20.639 -11.965  1.00  0.00    -0.270 OA
ATOM     10  H   UNL     1      -5.626  21.332 -12.378  1.00  0.00     0.170 HD
BRANCH   8  11
ATOM     11  C   UNL     1      -3.562  22.582 -11.292  1.00  0.00     0.064 C 
ATOM     12  C   UNL     1      -2.466  23.268 -11.037  1.00  0.00     0.014 C 
ENDBRANCH   8  11
ENDBRANCH   1   7
BRANCH   6  13
ATOM     13  N   UNL     1      -6.988  20.360 -14.125  1.00  0.00    -0.372 N 
ATOM     14  C   UNL     1      -6.608  21.409 -15.082  1.00  0.00     0.143 C 
BRANCH  13  15
ATOM     15  C   UNL     1      -8.252  20.428 -13.463  1.00  0.00     0.131 C 
BRANCH  15  16
ATOM     16  C   UNL     1      -8.487  21.643 -12.634  1.00  0.00     0.105 C 
BRANCH  16  17
ATOM     17  N   UNL     1      -7.363  22.077 -11.863  1.00  0.00    -0.308 NA
ATOM     18  C   UNL     1      -7.490  21.765 -10.438  1.00  0.00     0.105 C 
ATOM     19  C   UNL     1      -7.084  23.491 -12.035  1.00  0.00     0.105 C 
ENDBRANCH  16  17
ENDBRANCH  15  16
ENDBRANCH  13  15
ENDBRANCH   6  13
BRANCH   3  20
ATOM     20  N   UNL     1      -3.420  16.068 -13.508  1.00  0.00    -0.321 N 
ATOM     21  H   UNL     1      -3.352  15.435 -14.363  1.00  0.00     0.170 HD
BRANCH  20  22
ATOM     22  C   UNL     1      -2.637  15.679 -12.400  1.00  0.00     0.227 A 
ATOM     23  N   UNL     1      -2.396  14.418 -12.025  1.00  0.00    -0.220 NA
ATOM     24  N   UNL     1      -2.061  16.639 -11.635  1.00  0.00    -0.212 NA
ATOM     25  C   UNL     1      -1.640  14.103 -10.968  1.00  0.00     0.133 A 
ATOM     26  C   UNL     1      -1.295  16.388 -10.568  1.00  0.00     0.093 A 
ATOM     27  C   UNL     1      -1.052  15.107 -10.190  1.00  0.00     0.104 A 
BRANCH  26  28
ATOM     28  C   UNL     1      -0.745  17.511  -9.845  1.00  0.00     0.027 A 
ATOM     29  C   UNL     1       0.562  17.829  -9.522  1.00  0.00     0.096 A 
ATOM     30  C   UNL     1      -1.500  18.573  -9.329  1.00  0.00     0.009 A 
ATOM     31  N   UNL     1       0.586  18.997  -8.860  1.00  0.00    -0.350 N 
ATOM     32  C   UNL     1      -2.857  18.830  -9.331  1.00  0.00     0.011 A 
ATOM     33  C   UNL     1      -0.657  19.484  -8.722  1.00  0.00     0.048 A 
ATOM     34  C   UNL     1      -3.401  19.970  -8.744  1.00  0.00     0.001 A 
ATOM     35  C   UNL     1      -1.207  20.607  -8.144  1.00  0.00     0.027 A 
ATOM     36  C   UNL     1      -2.551  20.887  -8.132  1.00  0.00     0.002 A 
ATOM     37  C   UNL     1       1.764  19.694  -8.338  1.00  0.00     0.149 C 
ENDBRANCH  26  28
BRANCH  27  38
ATOM     38  C   UNL     1      -0.255  14.717  -9.036  1.00  0.00     0.342 C 
ATOM     39  O   UNL     1      -0.766  14.862  -7.873  1.00  0.00    -0.246 OA
BRANCH  38  40
ATOM     40  O   UNL     1       1.009  14.202  -9.080  1.00  0.00    -0.459 OA
BRANCH  40  41
ATOM     41  C   UNL     1       1.374  12.925  -8.609  1.00  0.00     0.170 C 
ATOM     42  C   UNL     1       1.053  12.695  -7.170  1.00  0.00     0.052 C 
ATOM     43  C   UNL     1       0.664  11.879  -9.441  1.00  0.00     0.052 C 
ENDBRANCH  40  41
ENDBRANCH  38  40
ENDBRANCH  27  38
ENDBRANCH  20  22
ENDBRANCH   3  20
BRANCH   4  44
ATOM     44  O   UNL     1      -5.675  15.902 -15.063  1.00  0.00    -0.494 OA
ATOM     45  C   UNL     1      -6.753  15.095 -14.679  1.00  0.00     0.278 C 
ENDBRANCH   4  44
TORSDOF 13
ENDMDL
