REMARK SMILES CC(=O)Oc1ccccc1C(=O)O
REMARK SMILES IDX 5 1 6 2 7 3 8 4 9 5 10 6 4 7 2 8 1 9 3 10 11 11 12 12 13 13
REMARK H PARENT 13 14
ROOT
ATOM      1  C   UNL     1      -0.229  -0.304   0.551  1.00  0.00     0.145 A 
ATOM      2  C   UNL     1      -0.408  -1.536   1.147  1.00  0.00     0.048 A 
ATOM      3  C   UNL     1      -1.634  -2.151   1.031  1.00  0.00     0.004 A 
ATOM      4  C   UNL     1      -2.651  -1.534   0.329  1.00  0.00     0.001 A 
ATOM      5  C   UNL     1      -2.449  -0.287  -0.266  1.00  0.00     0.019 A 
ATOM      6  C   UNL     1      -1.225   0.339  -0.157  1.00  0.00     0.102 A 
ENDROOT
BRANCH   1   7
ATOM      7  O   UNL     1       1.027   0.315   0.676  1.00  0.00    -0.426 OA
BRANCH   7   8
ATOM      8  C   UNL     1       2.027   0.093  -0.260  1.00  0.00     0.308 C 
ATOM      9  C   UNL     1       3.369   0.707  -0.195  1.00  0.00     0.139 C 
ATOM     10  O   UNL     1       1.802  -0.680  -1.241  1.00  0.00    -0.252 OA
ENDBRANCH   7   8
ENDBRANCH   1   7
BRANCH   6  11
ATOM     11  C   UNL     1      -1.040   1.642  -0.789  1.00  0.00     0.339 C 
ATOM     12  O   UNL     1      -1.972   2.206  -1.431  1.00  0.00    -0.246 OA
BRANCH  11  13
ATOM     13  O   UNL     1       0.174   2.309  -0.705  1.00  0.00    -0.478 OA
ATOM     14  H   UNL     1       0.239   3.328  -0.713  1.00  0.00     0.297 HD
ENDBRANCH  11  13
ENDBRANCH   6  11
TORSDOF 4
