REMARK SMILES Cn1c(=O)c2c(ncn2C)n(C)c1=O
REMARK SMILES IDX 10 1 9 2 8 3 7 4 6 5 5 6 3 7 4 8 2 9 13 10 14 11 11 12 12 13
REMARK SMILES IDX 1 14
REMARK H PARENT
ROOT
ATOM      1  C   UNL     1      -2.910   1.458  -0.566  1.00  0.00     0.151 C 
ATOM      2  N   UNL     1      -2.135   0.250  -0.370  1.00  0.00    -0.328 N 
ATOM      3  C   UNL     1      -2.578  -1.042  -0.368  1.00  0.00     0.202 A 
ATOM      4  N   UNL     1      -1.524  -1.840  -0.151  1.00  0.00    -0.218 NA
ATOM      5  C   UNL     1      -0.440  -1.098  -0.016  1.00  0.00     0.167 A 
ATOM      6  C   UNL     1      -0.806   0.226  -0.152  1.00  0.00     0.152 A 
ATOM      7  C   UNL     1       0.181   1.207  -0.048  1.00  0.00     0.282 A 
ATOM      8  O   UNL     1      -0.125   2.425  -0.168  1.00  0.00    -0.267 OA
ATOM      9  N   UNL     1       1.460   0.854   0.181  1.00  0.00    -0.261 N 
ATOM     10  C   UNL     1       1.810  -0.440   0.313  1.00  0.00     0.332 A 
ATOM     11  O   UNL     1       3.009  -0.738   0.525  1.00  0.00    -0.247 OA
ATOM     12  N   UNL     1       0.870  -1.396   0.214  1.00  0.00    -0.279 N 
ATOM     13  C   UNL     1       1.301  -2.794   0.365  1.00  0.00     0.157 C 
ATOM     14  C   UNL     1       2.452   1.919   0.282  1.00  0.00     0.159 C 
ENDROOT
TORSDOF 0
