REMARK SMILES CC(C)Cc1ccc(C(C)C(=O)O)cc1
REMARK SMILES IDX 5 1 6 2 7 3 8 4 14 5 15 6 4 7 2 8 1 9 3 10 9 11 10 12 11 13
REMARK SMILES IDX 12 14 13 15
REMARK H PARENT 13 16
ROOT
ATOM      1  C   UNL     1      -0.915  -0.686   0.419  1.00  0.00    -0.048 A 
ATOM      2  C   UNL     1      -0.339  -1.324  -0.655  1.00  0.00     0.004 A 
ATOM      3  C   UNL     1       0.997  -1.174  -0.970  1.00  0.00     0.005 A 
ATOM      4  C   UNL     1       1.797  -0.348  -0.177  1.00  0.00    -0.034 A 
ATOM      5  C   UNL     1       1.217   0.293   0.902  1.00  0.00     0.005 A 
ATOM      6  C   UNL     1      -0.111   0.123   1.188  1.00  0.00     0.004 A 
ENDROOT
BRANCH   1   7
ATOM      7  C   UNL     1      -2.351  -0.914   0.669  1.00  0.00     0.038 C 
BRANCH   7   8
ATOM      8  C   UNL     1      -3.231   0.104  -0.063  1.00  0.00    -0.013 C 
ATOM      9  C   UNL     1      -4.673  -0.238   0.275  1.00  0.00     0.008 C 
ATOM     10  C   UNL     1      -2.944   1.495   0.404  1.00  0.00     0.008 C 
ENDBRANCH   7   8
ENDBRANCH   1   7
BRANCH   4  11
ATOM     11  C   UNL     1       3.224  -0.124  -0.429  1.00  0.00     0.126 C 
ATOM     12  C   UNL     1       3.541   1.325  -0.753  1.00  0.00     0.025 C 
BRANCH  11  13
ATOM     13  C   UNL     1       4.105  -0.569   0.665  1.00  0.00     0.310 C 
ATOM     14  O   UNL     1       3.701  -1.094   1.729  1.00  0.00    -0.252 OA
BRANCH  13  15
ATOM     15  O   UNL     1       5.473  -0.392   0.502  1.00  0.00    -0.481 OA
ATOM     16  H   UNL     1       6.150  -0.410   1.253  1.00  0.00     0.296 HD
ENDBRANCH  13  15
ENDBRANCH  11  13
ENDBRANCH   4  11
TORSDOF 5
