MODEL 1
REMARK VINA RESULT:    -7.986      0.000      0.000
REMARK INTER + INTRA:         -13.857
REMARK INTER:                 -12.188
REMARK INTRA:                  -1.669
REMARK UNBOUND:                -1.669
REMARK SMILES CN(C)C/C=C/C(=O)Nc1cc2c(Nc3ccc(F)c(Cl)c3)ncnc2cc1O[C@H]1CCOC1
REMARK SMILES IDX 7 1 8 2 9 3 6 5 5 6 4 7 2 8 1 9 3 10 10 11 11 12 28 13 12 14
REMARK SMILES IDX 27 15 13 16 26 17 23 18 25 19 24 20 29 21 30 22 31 23 34 24
REMARK SMILES IDX 32 25 33 26 14 27 15 29 16 30 22 31 17 32 20 33 18 34 21 35
REMARK SMILES IDX 19 36
REMARK H PARENT 9 4 14 28
ROOT
ATOM      1  C   UNL     1      -3.082  49.091 -23.335  1.00  0.00     0.248 C 
ATOM      2  O   UNL     1      -2.375  48.314 -22.648  1.00  0.00    -0.270 OA
ATOM      3  N   UNL     1      -2.810  50.467 -23.361  1.00  0.00    -0.319 N 
ATOM      4  H   UNL     1      -3.464  51.048 -23.970  1.00  0.00     0.170 HD
ENDROOT
BRANCH   1   5
ATOM      5  C   UNL     1      -4.181  48.457 -24.080  1.00  0.00     0.068 C 
BRANCH   5   6
ATOM      6  C   UNL     1      -4.277  48.502 -25.396  1.00  0.00    -0.006 C 
BRANCH   6   7
ATOM      7  C   UNL     1      -3.054  48.552 -26.244  1.00  0.00     0.111 C 
BRANCH   7   8
ATOM      8  N   UNL     1      -3.240  49.191 -27.513  1.00  0.00    -0.306 NA
ATOM      9  C   UNL     1      -4.387  48.678 -28.237  1.00  0.00     0.105 C 
ATOM     10  C   UNL     1      -3.236  50.614 -27.481  1.00  0.00     0.105 C 
ENDBRANCH   7   8
ENDBRANCH   6   7
ENDBRANCH   5   6
ENDBRANCH   1   5
BRANCH   3  11
ATOM     11  C   UNL     1      -1.790  51.158 -22.686  1.00  0.00     0.085 A 
ATOM     12  C   UNL     1      -1.731  51.420 -21.340  1.00  0.00     0.044 A 
ATOM     13  C   UNL     1      -0.705  51.642 -23.436  1.00  0.00     0.145 A 
ATOM     14  C   UNL     1      -0.709  52.100 -20.725  1.00  0.00     0.045 A 
ATOM     15  C   UNL     1       0.333  52.326 -22.848  1.00  0.00     0.077 A 
ATOM     16  C   UNL     1      -0.682  52.350 -19.344  1.00  0.00     0.141 A 
ATOM     17  C   UNL     1       0.337  52.559 -21.497  1.00  0.00     0.080 A 
ATOM     18  N   UNL     1       0.390  53.024 -18.919  1.00  0.00    -0.219 NA
ATOM     19  N   UNL     1       1.389  53.238 -20.977  1.00  0.00    -0.236 NA
ATOM     20  C   UNL     1       1.408  53.473 -19.654  1.00  0.00     0.224 A 
BRANCH  13  21
ATOM     21  O   UNL     1      -0.685  51.427 -24.776  1.00  0.00    -0.486 OA
BRANCH  21  22
ATOM     22  C   UNL     1       0.155  51.899 -25.760  1.00  0.00     0.201 C 
ATOM     23  C   UNL     1       0.337  50.954 -26.925  1.00  0.00     0.076 C 
ATOM     24  C   UNL     1      -0.509  53.082 -26.481  1.00  0.00     0.205 C 
ATOM     25  C   UNL     1       0.295  51.869 -28.129  1.00  0.00     0.164 C 
ATOM     26  O   UNL     1       0.245  53.179 -27.649  1.00  0.00    -0.377 OA
ENDBRANCH  21  22
ENDBRANCH  13  21
BRANCH  16  27
ATOM     27  N   UNL     1      -1.728  51.909 -18.498  1.00  0.00    -0.340 N 
ATOM     28  H   UNL     1      -2.584  52.501 -18.430  1.00  0.00     0.168 HD
BRANCH  27  29
ATOM     29  C   UNL     1      -1.735  50.727 -17.721  1.00  0.00     0.041 A 
ATOM     30  C   UNL     1      -2.949  50.050 -17.541  1.00  0.00     0.029 A 
ATOM     31  C   UNL     1      -0.645  50.165 -17.117  1.00  0.00     0.049 A 
ATOM     32  C   UNL     1      -3.051  48.896 -16.805  1.00  0.00     0.043 A 
ATOM     33  C   UNL     1      -0.722  48.989 -16.361  1.00  0.00     0.078 A 
ATOM     34  C   UNL     1      -1.934  48.359 -16.210  1.00  0.00     0.141 A 
ATOM     35  Cl  UNL     1       0.714  48.322 -15.613  1.00  0.00    -0.081 Cl
ATOM     36  F   UNL     1      -1.958  47.224 -15.472  1.00  0.00    -0.205 F 
ENDBRANCH  27  29
ENDBRANCH  16  27
ENDBRANCH   3  11
TORSDOF 9
ENDMDL
