MODEL 1
REMARK VINA RESULT:    -7.283      0.000      0.000
REMARK INTER + INTRA:         -12.865
REMARK INTER:                 -11.115
REMARK INTRA:                  -1.750
REMARK UNBOUND:                -1.750
REMARK SMILES CN(C)C/C=C/C(=O)Nc1cc2c(Nc3ccc(F)c(Cl)c3)ncnc2cc1O[C@H]1CCOC1
REMARK SMILES IDX 7 1 8 2 9 3 6 5 5 6 4 7 2 8 1 9 3 10 10 11 11 12 28 13 12 14
REMARK SMILES IDX 27 15 13 16 26 17 23 18 25 19 24 20 29 21 30 22 31 23 34 24
REMARK SMILES IDX 32 25 33 26 14 27 15 29 16 30 22 31 17 32 20 33 18 34 21 35
REMARK SMILES IDX 19 36
REMARK H PARENT 9 4 14 28
ROOT
ATOM      1  C   UNL     1      -3.301  48.347 -20.044  1.00  0.00     0.248 C 
ATOM      2  O   UNL     1      -3.934  49.390 -19.754  1.00  0.00    -0.270 OA
ATOM      3  N   UNL     1      -1.914  48.389 -20.250  1.00  0.00    -0.319 N 
ATOM      4  H   UNL     1      -1.462  47.455 -20.493  1.00  0.00     0.170 HD
ENDROOT
BRANCH   1   5
ATOM      5  C   UNL     1      -4.108  47.121 -20.147  1.00  0.00     0.068 C 
BRANCH   5   6
ATOM      6  C   UNL     1      -4.243  46.441 -21.270  1.00  0.00    -0.006 C 
BRANCH   6   7
ATOM      7  C   UNL     1      -4.360  47.147 -22.575  1.00  0.00     0.111 C 
BRANCH   7   8
ATOM      8  N   UNL     1      -3.106  47.495 -23.174  1.00  0.00    -0.306 NA
ATOM      9  C   UNL     1      -2.640  46.498 -24.117  1.00  0.00     0.105 C 
ATOM     10  C   UNL     1      -3.040  48.806 -23.725  1.00  0.00     0.105 C 
ENDBRANCH   7   8
ENDBRANCH   6   7
ENDBRANCH   5   6
ENDBRANCH   1   5
BRANCH   3  11
ATOM     11  C   UNL     1      -1.064  49.505 -20.174  1.00  0.00     0.085 A 
ATOM     12  C   UNL     1      -0.829  50.424 -21.167  1.00  0.00     0.044 A 
ATOM     13  C   UNL     1      -0.369  49.733 -18.975  1.00  0.00     0.145 A 
ATOM     14  C   UNL     1       0.012  51.503 -21.044  1.00  0.00     0.045 A 
ATOM     15  C   UNL     1       0.479  50.804 -18.821  1.00  0.00     0.077 A 
ATOM     16  C   UNL     1       0.228  52.423 -22.081  1.00  0.00     0.141 A 
ATOM     17  C   UNL     1       0.674  51.690 -19.850  1.00  0.00     0.080 A 
ATOM     18  N   UNL     1       1.077  53.410 -21.785  1.00  0.00    -0.219 NA
ATOM     19  N   UNL     1       1.523  52.726 -19.637  1.00  0.00    -0.236 NA
ATOM     20  C   UNL     1       1.724  53.604 -20.634  1.00  0.00     0.224 A 
BRANCH  13  21
ATOM     21  O   UNL     1      -0.544  48.871 -17.941  1.00  0.00    -0.486 OA
BRANCH  21  22
ATOM     22  C   UNL     1      -1.267  48.984 -16.774  1.00  0.00     0.201 C 
ATOM     23  C   UNL     1      -0.441  49.371 -15.568  1.00  0.00     0.076 C 
ATOM     24  C   UNL     1      -2.196  50.205 -16.860  1.00  0.00     0.205 C 
ATOM     25  C   UNL     1      -1.316  50.378 -14.853  1.00  0.00     0.164 C 
ATOM     26  O   UNL     1      -2.538  50.412 -15.525  1.00  0.00    -0.377 OA
ENDBRANCH  21  22
ENDBRANCH  13  21
BRANCH  16  27
ATOM     27  N   UNL     1      -0.419  52.283 -23.332  1.00  0.00    -0.340 N 
ATOM     28  H   UNL     1      -1.443  52.084 -23.334  1.00  0.00     0.168 HD
BRANCH  27  29
ATOM     29  C   UNL     1       0.189  52.387 -24.606  1.00  0.00     0.041 A 
ATOM     30  C   UNL     1       1.291  51.570 -24.891  1.00  0.00     0.029 A 
ATOM     31  C   UNL     1      -0.208  53.225 -25.610  1.00  0.00     0.049 A 
ATOM     32  C   UNL     1       1.942  51.601 -26.099  1.00  0.00     0.043 A 
ATOM     33  C   UNL     1       0.439  53.276 -26.851  1.00  0.00     0.078 A 
ATOM     34  C   UNL     1       1.517  52.457 -27.088  1.00  0.00     0.141 A 
ATOM     35  Cl  UNL     1      -0.119  54.374 -28.097  1.00  0.00    -0.081 Cl
ATOM     36  F   UNL     1       2.109  52.541 -28.302  1.00  0.00    -0.205 F 
ENDBRANCH  27  29
ENDBRANCH  16  27
ENDBRANCH   3  11
TORSDOF 9
ENDMDL
