MODEL 1
REMARK VINA RESULT:    -8.455      0.000      0.000
REMARK INTER + INTRA:         -14.562
REMARK INTER:                 -12.903
REMARK INTRA:                  -1.659
REMARK UNBOUND:                -1.659
REMARK SMILES CN(C)C/C=C/C(=O)Nc1cc2c(Nc3ccc(F)c(Cl)c3)ncnc2cc1O[C@H]1CCOC1
REMARK SMILES IDX 7 1 8 2 9 3 6 5 5 6 4 7 2 8 1 9 3 10 10 11 11 12 28 13 12 14
REMARK SMILES IDX 27 15 13 16 26 17 23 18 25 19 24 20 29 21 30 22 31 23 34 24
REMARK SMILES IDX 32 25 33 26 14 27 15 29 16 30 22 31 17 32 20 33 18 34 21 35
REMARK SMILES IDX 19 36
REMARK H PARENT 9 4 14 28
ROOT
ATOM      1  C   UNL     1      25.373   1.315  52.285  1.00  0.00     0.248 C 
ATOM      2  O   UNL     1      25.683   1.546  51.096  1.00  0.00    -0.270 OA
ATOM      3  N   UNL     1      24.334   1.996  52.963  1.00  0.00    -0.319 N 
ATOM      4  H   UNL     1      24.188   1.691  53.969  1.00  0.00     0.170 HD
ENDROOT
BRANCH   1   5
ATOM      5  C   UNL     1      26.153   0.276  52.970  1.00  0.00     0.068 C 
BRANCH   5   6
ATOM      6  C   UNL     1      26.406   0.406  54.265  1.00  0.00    -0.006 C 
BRANCH   6   7
ATOM      7  C   UNL     1      27.732   0.048  54.833  1.00  0.00     0.111 C 
BRANCH   7   8
ATOM      8  N   UNL     1      28.780   0.411  53.892  1.00  0.00    -0.306 NA
ATOM      9  C   UNL     1      29.404   1.614  54.422  1.00  0.00     0.105 C 
ATOM     10  C   UNL     1      29.768  -0.622  53.753  1.00  0.00     0.105 C 
ENDBRANCH   7   8
ENDBRANCH   6   7
ENDBRANCH   5   6
ENDBRANCH   1   5
BRANCH   3  11
ATOM     11  C   UNL     1      23.514   3.006  52.427  1.00  0.00     0.085 A 
ATOM     12  C   UNL     1      23.915   4.264  52.057  1.00  0.00     0.044 A 
ATOM     13  C   UNL     1      22.159   2.689  52.254  1.00  0.00     0.145 A 
ATOM     14  C   UNL     1      23.059   5.210  51.536  1.00  0.00     0.045 A 
ATOM     15  C   UNL     1      21.300   3.670  51.718  1.00  0.00     0.077 A 
ATOM     16  C   UNL     1      23.462   6.480  51.162  1.00  0.00     0.141 A 
ATOM     17  C   UNL     1      21.731   4.907  51.364  1.00  0.00     0.080 A 
ATOM     18  N   UNL     1      22.565   7.304  50.676  1.00  0.00    -0.219 NA
ATOM     19  N   UNL     1      20.841   5.799  50.854  1.00  0.00    -0.236 NA
ATOM     20  C   UNL     1      21.284   7.041  50.499  1.00  0.00     0.224 A 
BRANCH  13  21
ATOM     21  O   UNL     1      21.685   1.530  52.572  1.00  0.00    -0.486 OA
BRANCH  21  22
ATOM     22  C   UNL     1      21.209   0.368  52.891  1.00  0.00     0.201 C 
ATOM     23  C   UNL     1      22.228  -0.801  52.868  1.00  0.00     0.076 C 
ATOM     24  C   UNL     1      20.673   0.198  54.309  1.00  0.00     0.205 C 
ATOM     25  C   UNL     1      22.720  -0.708  54.310  1.00  0.00     0.164 C 
ATOM     26  O   UNL     1      21.511  -0.649  54.985  1.00  0.00    -0.377 OA
ENDBRANCH  21  22
ENDBRANCH  13  21
BRANCH  16  27
ATOM     27  N   UNL     1      24.799   6.891  51.305  1.00  0.00    -0.340 N 
ATOM     28  H   UNL     1      25.135   7.146  52.274  1.00  0.00     0.168 HD
BRANCH  27  29
ATOM     29  C   UNL     1      25.776   7.009  50.291  1.00  0.00     0.041 A 
ATOM     30  C   UNL     1      26.036   5.903  49.461  1.00  0.00     0.029 A 
ATOM     31  C   UNL     1      26.514   8.129  50.022  1.00  0.00     0.049 A 
ATOM     32  C   UNL     1      26.958   5.937  48.456  1.00  0.00     0.043 A 
ATOM     33  C   UNL     1      27.464   8.174  48.993  1.00  0.00     0.078 A 
ATOM     34  C   UNL     1      27.687   7.069  48.206  1.00  0.00     0.141 A 
ATOM     35  Cl  UNL     1      28.377   9.639  48.700  1.00  0.00    -0.081 Cl
ATOM     36  F   UNL     1      28.605   7.123  47.215  1.00  0.00    -0.205 F 
ENDBRANCH  27  29
ENDBRANCH  16  27
ENDBRANCH   3  11
TORSDOF 9
ENDMDL
