MODEL 1
REMARK VINA RESULT:    -5.136      0.000      0.000
REMARK INTER + INTRA:          -6.940
REMARK INTER:                  -6.187
REMARK INTRA:                  -0.753
REMARK UNBOUND:                -0.753
REMARK SMILES CC(=O)Oc1ccccc1C(=O)O
REMARK SMILES IDX 5 1 6 2 7 3 8 4 9 5 10 6 4 7 2 8 1 9 3 10 11 11 12 12 13 13
REMARK H PARENT 13 14
ROOT
ATOM      1  C   UNL     1       0.310  52.148 -22.781  1.00  0.00     0.145 A 
ATOM      2  C   UNL     1      -0.751  51.309 -23.054  1.00  0.00     0.048 A 
ATOM      3  C   UNL     1      -1.686  51.089 -22.068  1.00  0.00     0.004 A 
ATOM      4  C   UNL     1      -1.549  51.704 -20.839  1.00  0.00     0.001 A 
ATOM      5  C   UNL     1      -0.467  52.549 -20.583  1.00  0.00     0.019 A 
ATOM      6  C   UNL     1       0.476  52.777 -21.563  1.00  0.00     0.102 A 
ENDROOT
BRANCH   1   7
ATOM      7  O   UNL     1       1.259  52.365 -23.796  1.00  0.00    -0.426 OA
BRANCH   7   8
ATOM      8  C   UNL     1       0.908  53.009 -24.973  1.00  0.00     0.308 C 
ATOM      9  C   UNL     1       0.835  52.342 -26.289  1.00  0.00     0.139 C 
ATOM     10  O   UNL     1       0.629  54.247 -24.947  1.00  0.00    -0.252 OA
ENDBRANCH   7   8
ENDBRANCH   1   7
BRANCH   6  11
ATOM     11  C   UNL     1       1.597  53.665 -21.271  1.00  0.00     0.339 C 
ATOM     12  O   UNL     1       2.319  53.506 -20.246  1.00  0.00    -0.246 OA
BRANCH  11  13
ATOM     13  O   UNL     1       1.908  54.722 -22.115  1.00  0.00    -0.478 OA
ATOM     14  H   UNL     1       2.791  55.231 -22.049  1.00  0.00     0.297 HD
ENDBRANCH  11  13
ENDBRANCH   6  11
TORSDOF 4
ENDMDL
