MODEL 1
REMARK VINA RESULT:    -5.669      0.000      0.000
REMARK INTER + INTRA:          -7.240
REMARK INTER:                  -6.829
REMARK INTRA:                  -0.411
REMARK UNBOUND:                -0.411
REMARK SMILES CC(=O)Oc1ccccc1C(=O)O
REMARK SMILES IDX 5 1 6 2 7 3 8 4 9 5 10 6 4 7 2 8 1 9 3 10 11 11 12 12 13 13
REMARK H PARENT 13 14
ROOT
ATOM      1  C   UNL     1       0.300 195.734  21.758  1.00  0.00     0.145 A 
ATOM      2  C   UNL     1       1.269 194.815  22.108  1.00  0.00     0.048 A 
ATOM      3  C   UNL     1       2.009 194.226  21.108  1.00  0.00     0.004 A 
ATOM      4  C   UNL     1       1.773 194.560  19.789  1.00  0.00     0.001 A 
ATOM      5  C   UNL     1       0.788 195.491  19.456  1.00  0.00     0.019 A 
ATOM      6  C   UNL     1       0.040 196.088  20.449  1.00  0.00     0.102 A 
ENDROOT
BRANCH   1   7
ATOM      7  O   UNL     1      -0.450 196.329  22.787  1.00  0.00    -0.426 OA
BRANCH   7   8
ATOM      8  C   UNL     1       0.104 196.541  24.042  1.00  0.00     0.308 C 
ATOM      9  C   UNL     1      -0.157 195.683  25.215  1.00  0.00     0.139 C 
ATOM     10  O   UNL     1       0.887 197.524  24.219  1.00  0.00    -0.252 OA
ENDBRANCH   7   8
ENDBRANCH   1   7
BRANCH   6  11
ATOM     11  C   UNL     1      -0.984 197.059  20.074  1.00  0.00     0.339 C 
ATOM     12  O   UNL     1      -1.575 197.002  18.958  1.00  0.00    -0.246 OA
BRANCH  11  13
ATOM     13  O   UNL     1      -1.344 198.084  20.938  1.00  0.00    -0.478 OA
ATOM     14  H   UNL     1      -0.721 198.424  21.672  1.00  0.00     0.297 HD
ENDBRANCH  11  13
ENDBRANCH   6  11
TORSDOF 4
ENDMDL
