MODEL 1
REMARK VINA RESULT:    -5.463      0.000      0.000
REMARK INTER + INTRA:          -7.241
REMARK INTER:                  -6.581
REMARK INTRA:                  -0.661
REMARK UNBOUND:                -0.661
REMARK SMILES CC(=O)Oc1ccccc1C(=O)O
REMARK SMILES IDX 5 1 6 2 7 3 8 4 9 5 10 6 4 7 2 8 1 9 3 10 11 11 12 12 13 13
REMARK H PARENT 13 14
ROOT
ATOM      1  C   UNL     1       0.216  51.370 -25.987  1.00  0.00     0.145 A 
ATOM      2  C   UNL     1       1.590  51.337 -25.862  1.00  0.00     0.048 A 
ATOM      3  C   UNL     1       2.358  51.607 -26.972  1.00  0.00     0.004 A 
ATOM      4  C   UNL     1       1.750  51.903 -28.176  1.00  0.00     0.001 A 
ATOM      5  C   UNL     1       0.357  51.930 -28.281  1.00  0.00     0.019 A 
ATOM      6  C   UNL     1      -0.423  51.662 -27.176  1.00  0.00     0.102 A 
ENDROOT
BRANCH   1   7
ATOM      7  O   UNL     1      -0.559  51.093 -24.847  1.00  0.00    -0.426 OA
BRANCH   7   8
ATOM      8  C   UNL     1      -0.755  52.056 -23.867  1.00  0.00     0.308 C 
ATOM      9  C   UNL     1       0.071  52.171 -22.648  1.00  0.00     0.139 C 
ATOM     10  O   UNL     1      -1.692  52.900 -24.002  1.00  0.00    -0.252 OA
ENDBRANCH   7   8
ENDBRANCH   1   7
BRANCH   6  11
ATOM     11  C   UNL     1      -1.876  51.698 -27.313  1.00  0.00     0.339 C 
ATOM     12  O   UNL     1      -2.509  50.778 -27.906  1.00  0.00    -0.246 OA
BRANCH  11  13
ATOM     13  O   UNL     1      -2.615  52.751 -26.792  1.00  0.00    -0.478 OA
ATOM     14  H   UNL     1      -3.294  53.270 -27.351  1.00  0.00     0.297 HD
ENDBRANCH  11  13
ENDBRANCH   6  11
TORSDOF 4
ENDMDL
