MODEL 1
REMARK VINA RESULT:    -5.448      0.000      0.000
REMARK INTER + INTRA:          -7.157
REMARK INTER:                  -6.563
REMARK INTRA:                  -0.594
REMARK UNBOUND:                -0.594
REMARK SMILES CC(=O)Oc1ccccc1C(=O)O
REMARK SMILES IDX 5 1 6 2 7 3 8 4 9 5 10 6 4 7 2 8 1 9 3 10 11 11 12 12 13 13
REMARK H PARENT 13 14
ROOT
ATOM      1  C   UNL     1      51.064  -0.454 -25.540  1.00  0.00     0.145 A 
ATOM      2  C   UNL     1      50.794  -1.806 -25.614  1.00  0.00     0.048 A 
ATOM      3  C   UNL     1      51.148  -2.486 -26.758  1.00  0.00     0.004 A 
ATOM      4  C   UNL     1      51.760  -1.813 -27.798  1.00  0.00     0.001 A 
ATOM      5  C   UNL     1      52.024  -0.445 -27.702  1.00  0.00     0.019 A 
ATOM      6  C   UNL     1      51.674   0.246 -26.562  1.00  0.00     0.102 A 
ENDROOT
BRANCH   1   7
ATOM      7  O   UNL     1      50.697   0.230 -24.368  1.00  0.00    -0.426 OA
BRANCH   7   8
ATOM      8  C   UNL     1      51.423   0.073 -23.196  1.00  0.00     0.308 C 
ATOM      9  C   UNL     1      50.820   0.068 -21.847  1.00  0.00     0.139 C 
ATOM     10  O   UNL     1      52.682  -0.076 -23.257  1.00  0.00    -0.252 OA
ENDBRANCH   7   8
ENDBRANCH   1   7
BRANCH   6  11
ATOM     11  C   UNL     1      51.961   1.676 -26.488  1.00  0.00     0.339 C 
ATOM     12  O   UNL     1      51.717   2.452 -27.455  1.00  0.00    -0.246 OA
BRANCH  11  13
ATOM     13  O   UNL     1      52.515   2.233 -25.344  1.00  0.00    -0.478 OA
ATOM     14  H   UNL     1      53.517   2.405 -25.250  1.00  0.00     0.297 HD
ENDBRANCH  11  13
ENDBRANCH   6  11
TORSDOF 4
ENDMDL
