MODEL 1
REMARK VINA RESULT:    -5.075      0.000      0.000
REMARK INTER + INTRA:          -5.075
REMARK INTER:                  -5.075
REMARK INTRA:                   0.000
REMARK UNBOUND:                 0.000
REMARK SMILES Cn1c(=O)c2c(ncn2C)n(C)c1=O
REMARK SMILES IDX 10 1 9 2 8 3 7 4 6 5 5 6 3 7 4 8 2 9 13 10 14 11 11 12 12 13
REMARK SMILES IDX 1 14
REMARK H PARENT
ROOT
ATOM      1  C   UNL     1       0.284  53.953 -25.406  1.00  0.00     0.151 C 
ATOM      2  N   UNL     1      -0.216  52.826 -24.646  1.00  0.00    -0.328 N 
ATOM      3  C   UNL     1      -1.090  51.859 -25.054  1.00  0.00     0.202 A 
ATOM      4  N   UNL     1      -1.276  51.012 -24.033  1.00  0.00    -0.218 NA
ATOM      5  C   UNL     1      -0.553  51.411 -23.003  1.00  0.00     0.167 A 
ATOM      6  C   UNL     1       0.124  52.556 -23.371  1.00  0.00     0.152 A 
ATOM      7  C   UNL     1       0.962  53.168 -22.438  1.00  0.00     0.282 A 
ATOM      8  O   UNL     1       1.593  54.216 -22.747  1.00  0.00    -0.267 OA
ATOM      9  N   UNL     1       1.097  52.641 -21.206  1.00  0.00    -0.261 N 
ATOM     10  C   UNL     1       0.432  51.523 -20.853  1.00  0.00     0.332 A 
ATOM     11  O   UNL     1       0.579  51.055 -19.699  1.00  0.00    -0.247 OA
ATOM     12  N   UNL     1      -0.377  50.923 -21.742  1.00  0.00    -0.279 N 
ATOM     13  C   UNL     1      -1.080  49.705 -21.310  1.00  0.00     0.157 C 
ATOM     14  C   UNL     1       1.984  53.320 -20.268  1.00  0.00     0.159 C 
ENDROOT
TORSDOF 0
ENDMDL
