MODEL 1
REMARK VINA RESULT:    -5.228      0.000      0.000
REMARK INTER + INTRA:          -5.228
REMARK INTER:                  -5.228
REMARK INTRA:                   0.000
REMARK UNBOUND:                 0.000
REMARK SMILES Cn1c(=O)c2c(ncn2C)n(C)c1=O
REMARK SMILES IDX 10 1 9 2 8 3 7 4 6 5 5 6 3 7 4 8 2 9 13 10 14 11 11 12 12 13
REMARK SMILES IDX 1 14
REMARK H PARENT
ROOT
ATOM      1  C   UNL     1      -0.366 196.531  26.462  1.00  0.00     0.151 C 
ATOM      2  N   UNL     1       0.995 196.213  26.082  1.00  0.00    -0.328 N 
ATOM      3  C   UNL     1       2.103 196.178  26.879  1.00  0.00     0.202 A 
ATOM      4  N   UNL     1       3.150 195.836  26.115  1.00  0.00    -0.218 NA
ATOM      5  C   UNL     1       2.740 195.659  24.873  1.00  0.00     0.167 A 
ATOM      6  C   UNL     1       1.380 195.892  24.832  1.00  0.00     0.152 A 
ATOM      7  C   UNL     1       0.715 195.762  23.612  1.00  0.00     0.282 A 
ATOM      8  O   UNL     1      -0.527 195.969  23.545  1.00  0.00    -0.267 OA
ATOM      9  N   UNL     1       1.400 195.417  22.505  1.00  0.00    -0.261 N 
ATOM     10  C   UNL     1       2.727 195.191  22.552  1.00  0.00     0.332 A 
ATOM     11  O   UNL     1       3.338 194.870  21.505  1.00  0.00    -0.247 OA
ATOM     12  N   UNL     1       3.381 195.311  23.721  1.00  0.00    -0.279 N 
ATOM     13  C   UNL     1       4.829 195.055  23.722  1.00  0.00     0.157 C 
ATOM     14  C   UNL     1       0.657 195.296  21.255  1.00  0.00     0.159 C 
ENDROOT
TORSDOF 0
ENDMDL
