MODEL 1
REMARK VINA RESULT:    -5.506      0.000      0.000
REMARK INTER + INTRA:          -5.506
REMARK INTER:                  -5.506
REMARK INTRA:                   0.000
REMARK UNBOUND:                 0.000
REMARK SMILES Cn1c(=O)c2c(ncn2C)n(C)c1=O
REMARK SMILES IDX 10 1 9 2 8 3 7 4 6 5 5 6 3 7 4 8 2 9 13 10 14 11 11 12 12 13
REMARK SMILES IDX 1 14
REMARK H PARENT
ROOT
ATOM      1  C   UNL     1      22.647  -0.774  54.094  1.00  0.00     0.151 C 
ATOM      2  N   UNL     1      23.390   0.143  53.226  1.00  0.00    -0.328 N 
ATOM      3  C   UNL     1      22.872   0.822  52.186  1.00  0.00     0.202 A 
ATOM      4  N   UNL     1      23.858   1.565  51.624  1.00  0.00    -0.218 NA
ATOM      5  C   UNL     1      24.985   1.348  52.314  1.00  0.00     0.167 A 
ATOM      6  C   UNL     1      24.695   0.456  53.319  1.00  0.00     0.152 A 
ATOM      7  C   UNL     1      25.688   0.062  54.181  1.00  0.00     0.282 A 
ATOM      8  O   UNL     1      25.384  -0.752  55.084  1.00  0.00    -0.267 OA
ATOM      9  N   UNL     1      26.942   0.558  54.025  1.00  0.00    -0.261 N 
ATOM     10  C   UNL     1      27.239   1.439  53.037  1.00  0.00     0.332 A 
ATOM     11  O   UNL     1      28.411   1.906  52.888  1.00  0.00    -0.247 OA
ATOM     12  N   UNL     1      26.245   1.806  52.208  1.00  0.00    -0.279 N 
ATOM     13  C   UNL     1      26.553   2.759  51.132  1.00  0.00     0.157 C 
ATOM     14  C   UNL     1      27.978   0.133  54.941  1.00  0.00     0.159 C 
ENDROOT
TORSDOF 0
ENDMDL
