MODEL 1
REMARK VINA RESULT:    -5.141      0.000      0.000
REMARK INTER + INTRA:          -5.141
REMARK INTER:                  -5.141
REMARK INTRA:                   0.000
REMARK UNBOUND:                 0.000
REMARK SMILES Cn1c(=O)c2c(ncn2C)n(C)c1=O
REMARK SMILES IDX 10 1 9 2 8 3 7 4 6 5 5 6 3 7 4 8 2 9 13 10 14 11 11 12 12 13
REMARK SMILES IDX 1 14
REMARK H PARENT
ROOT
ATOM      1  C   UNL     1      52.167  -0.147 -27.338  1.00  0.00     0.151 C 
ATOM      2  N   UNL     1      51.927   1.117 -26.672  1.00  0.00    -0.328 N 
ATOM      3  C   UNL     1      51.888   2.364 -27.226  1.00  0.00     0.202 A 
ATOM      4  N   UNL     1      51.637   3.244 -26.247  1.00  0.00    -0.218 NA
ATOM      5  C   UNL     1      51.519   2.595 -25.103  1.00  0.00     0.167 A 
ATOM      6  C   UNL     1      51.699   1.249 -25.352  1.00  0.00     0.152 A 
ATOM      7  C   UNL     1      51.617   0.355 -24.283  1.00  0.00     0.282 A 
ATOM      8  O   UNL     1      51.778  -0.881 -24.481  1.00  0.00    -0.267 OA
ATOM      9  N   UNL     1      51.368   0.811 -23.041  1.00  0.00    -0.261 N 
ATOM     10  C   UNL     1      51.194   2.125 -22.806  1.00  0.00     0.332 A 
ATOM     11  O   UNL     1      50.963   2.520 -21.639  1.00  0.00    -0.247 OA
ATOM     12  N   UNL     1      51.269   2.998 -23.825  1.00  0.00    -0.279 N 
ATOM     13  C   UNL     1      51.071   4.423 -23.519  1.00  0.00     0.157 C 
ATOM     14  C   UNL     1      51.294  -0.167 -21.960  1.00  0.00     0.159 C 
ENDROOT
TORSDOF 0
ENDMDL
