MODEL 1
REMARK VINA RESULT:    -7.113      0.000      0.000
REMARK INTER + INTRA:         -13.032
REMARK INTER:                 -11.687
REMARK INTRA:                  -1.344
REMARK UNBOUND:                -1.344
REMARK SMILES C#Cc1cccc(Nc2ncnc3cc(OCCOC)c(OCCOC)cc23)c1
REMARK SMILES IDX 9 1 10 2 11 3 12 4 13 5 14 6 15 7 21 8 27 9 28 10 8 11 7 13
REMARK SMILES IDX 3 14 4 15 29 16 5 17 6 18 2 19 1 20 22 21 23 22 24 23 25 24
REMARK SMILES IDX 26 25 16 26 17 27 18 28 19 29 20 30
REMARK H PARENT 8 12
ROOT
ATOM      1  C   UNL     1      22.194   1.068  52.988  1.00  0.00     0.141 A 
ATOM      2  N   UNL     1      21.427   0.361  53.825  1.00  0.00    -0.219 NA
ATOM      3  C   UNL     1      21.810  -0.655  54.594  1.00  0.00     0.224 A 
ATOM      4  N   UNL     1      23.110  -1.019  54.529  1.00  0.00    -0.236 NA
ATOM      5  C   UNL     1      23.970  -0.364  53.709  1.00  0.00     0.080 A 
ATOM      6  C   UNL     1      25.286  -0.774  53.681  1.00  0.00     0.079 A 
ATOM      7  C   UNL     1      26.230  -0.173  52.884  1.00  0.00     0.163 A 
ATOM      8  C   UNL     1      25.751   0.896  52.097  1.00  0.00     0.162 A 
ATOM      9  C   UNL     1      24.448   1.301  52.128  1.00  0.00     0.064 A 
ATOM     10  C   UNL     1      23.539   0.680  52.931  1.00  0.00     0.047 A 
ENDROOT
BRANCH   1  11
ATOM     11  N   UNL     1      21.723   2.136  52.200  1.00  0.00    -0.340 N 
ATOM     12  H   UNL     1      21.291   2.956  52.686  1.00  0.00     0.168 HD
BRANCH  11  13
ATOM     13  C   UNL     1      21.771   2.228  50.788  1.00  0.00     0.041 A 
ATOM     14  C   UNL     1      22.139   3.351  48.683  1.00  0.00     0.026 A 
ATOM     15  C   UNL     1      21.813   2.231  47.971  1.00  0.00     0.017 A 
ATOM     16  C   UNL     1      22.118   3.347  50.081  1.00  0.00     0.043 A 
ATOM     17  C   UNL     1      21.462   1.101  48.651  1.00  0.00     0.003 A 
ATOM     18  C   UNL     1      21.443   1.102  50.023  1.00  0.00     0.026 A 
BRANCH  14  19
ATOM     19  C   UNL     1      22.504   4.532  47.982  1.00  0.00    -0.070 C 
ATOM     20  C   UNL     1      22.801   5.553  47.384  1.00  0.00     0.010 C 
ENDBRANCH  14  19
ENDBRANCH  11  13
ENDBRANCH   1  11
BRANCH   8  21
ATOM     21  O   UNL     1      26.634   1.559  51.264  1.00  0.00    -0.487 OA
BRANCH  21  22
ATOM     22  C   UNL     1      26.555   2.905  50.927  1.00  0.00     0.258 C 
BRANCH  22  23
ATOM     23  C   UNL     1      26.469   3.130  49.418  1.00  0.00     0.201 C 
BRANCH  23  24
ATOM     24  O   UNL     1      25.925   4.369  49.136  1.00  0.00    -0.381 OA
ATOM     25  C   UNL     1      25.429   4.951  50.302  1.00  0.00     0.195 C 
ENDBRANCH  23  24
ENDBRANCH  22  23
ENDBRANCH  21  22
ENDBRANCH   8  21
BRANCH   7  26
ATOM     26  O   UNL     1      27.528  -0.465  52.764  1.00  0.00    -0.487 OA
BRANCH  26  27
ATOM     27  C   UNL     1      28.590  -0.789  53.549  1.00  0.00     0.258 C 
BRANCH  27  28
ATOM     28  C   UNL     1      29.644   0.240  53.804  1.00  0.00     0.201 C 
BRANCH  28  29
ATOM     29  O   UNL     1      29.214   1.309  54.519  1.00  0.00    -0.381 OA
ATOM     30  C   UNL     1      28.926   2.440  53.787  1.00  0.00     0.195 C 
ENDBRANCH  28  29
ENDBRANCH  27  28
ENDBRANCH  26  27
ENDBRANCH   7  26
TORSDOF 11
ENDMDL
