MODEL 1
REMARK VINA RESULT:    -6.618      0.000      0.000
REMARK INTER + INTRA:         -11.932
REMARK INTER:                 -10.873
REMARK INTRA:                  -1.059
REMARK UNBOUND:                -1.059
REMARK SMILES C#Cc1cccc(Nc2ncnc3cc(OCCOC)c(OCCOC)cc23)c1
REMARK SMILES IDX 9 1 10 2 11 3 12 4 13 5 14 6 15 7 21 8 27 9 28 10 8 11 7 13
REMARK SMILES IDX 3 14 4 15 29 16 5 17 6 18 2 19 1 20 22 21 23 22 24 23 25 24
REMARK SMILES IDX 26 25 16 26 17 27 18 28 19 29 20 30
REMARK H PARENT 8 12
ROOT
ATOM      1  C   UNL     1      51.324   0.376 -22.394  1.00  0.00     0.141 A 
ATOM      2  N   UNL     1      52.492  -0.257 -22.526  1.00  0.00    -0.219 NA
ATOM      3  C   UNL     1      53.150  -0.888 -21.556  1.00  0.00     0.224 A 
ATOM      4  N   UNL     1      52.623  -0.909 -20.321  1.00  0.00    -0.236 NA
ATOM      5  C   UNL     1      51.440  -0.293 -20.093  1.00  0.00     0.080 A 
ATOM      6  C   UNL     1      50.915  -0.326 -18.821  1.00  0.00     0.079 A 
ATOM      7  C   UNL     1      49.716   0.276 -18.504  1.00  0.00     0.163 A 
ATOM      8  C   UNL     1      49.011   0.952 -19.538  1.00  0.00     0.162 A 
ATOM      9  C   UNL     1      49.580   0.953 -20.793  1.00  0.00     0.064 A 
ATOM     10  C   UNL     1      50.775   0.351 -21.102  1.00  0.00     0.047 A 
ENDROOT
BRANCH   1  11
ATOM     11  N   UNL     1      50.669   1.034 -23.460  1.00  0.00    -0.340 N 
ATOM     12  H   UNL     1      49.738   1.467 -23.266  1.00  0.00     0.168 HD
BRANCH  11  13
ATOM     13  C   UNL     1      51.145   1.171 -24.782  1.00  0.00     0.041 A 
ATOM     14  C   UNL     1      51.818   0.056 -26.837  1.00  0.00     0.026 A 
ATOM     15  C   UNL     1      52.088   1.261 -27.434  1.00  0.00     0.017 A 
ATOM     16  C   UNL     1      51.357   0.012 -25.543  1.00  0.00     0.043 A 
ATOM     17  C   UNL     1      51.894   2.405 -26.730  1.00  0.00     0.003 A 
ATOM     18  C   UNL     1      51.426   2.353 -25.412  1.00  0.00     0.026 A 
BRANCH  14  19
ATOM     19  C   UNL     1      52.020  -1.164 -27.577  1.00  0.00    -0.070 C 
ATOM     20  C   UNL     1      52.190  -2.168 -28.205  1.00  0.00     0.010 C 
ENDBRANCH  14  19
ENDBRANCH  11  13
ENDBRANCH   1  11
BRANCH   8  21
ATOM     21  O   UNL     1      47.844   1.528 -19.166  1.00  0.00    -0.487 OA
BRANCH  21  22
ATOM     22  C   UNL     1      47.417   2.824 -19.308  1.00  0.00     0.258 C 
BRANCH  22  23
ATOM     23  C   UNL     1      48.361   3.815 -18.726  1.00  0.00     0.201 C 
BRANCH  23  24
ATOM     24  O   UNL     1      49.279   4.336 -19.638  1.00  0.00    -0.381 OA
ATOM     25  C   UNL     1      48.852   5.465 -20.292  1.00  0.00     0.195 C 
ENDBRANCH  23  24
ENDBRANCH  22  23
ENDBRANCH  21  22
ENDBRANCH   8  21
BRANCH   7  26
ATOM     26  O   UNL     1      49.140   0.283 -17.283  1.00  0.00    -0.487 OA
BRANCH  26  27
ATOM     27  C   UNL     1      49.535   0.714 -16.038  1.00  0.00     0.258 C 
BRANCH  27  28
ATOM     28  C   UNL     1      50.017  -0.310 -15.072  1.00  0.00     0.201 C 
BRANCH  28  29
ATOM     29  O   UNL     1      49.687  -1.580 -15.498  1.00  0.00    -0.381 OA
ATOM     30  C   UNL     1      50.742  -2.426 -15.760  1.00  0.00     0.195 C 
ENDBRANCH  28  29
ENDBRANCH  27  28
ENDBRANCH  26  27
ENDBRANCH   7  26
TORSDOF 11
ENDMDL
