MODEL 1
REMARK VINA RESULT:    -7.646      0.000      0.000
REMARK INTER + INTRA:         -13.445
REMARK INTER:                 -12.562
REMARK INTRA:                  -0.883
REMARK UNBOUND:                -0.883
REMARK SMILES C#Cc1cccc(Nc2ncnc3cc(OCCOC)c(OCCOC)cc23)c1
REMARK SMILES IDX 9 1 10 2 11 3 12 4 13 5 14 6 15 7 21 8 27 9 28 10 8 11 7 13
REMARK SMILES IDX 3 14 4 15 29 16 5 17 6 18 2 19 1 20 22 21 23 22 24 23 25 24
REMARK SMILES IDX 26 25 16 26 17 27 18 28 19 29 20 30
REMARK H PARENT 8 12
ROOT
ATOM      1  C   UNL     1       0.143 195.730  21.548  1.00  0.00     0.141 A 
ATOM      2  N   UNL     1      -0.514 196.846  21.872  1.00  0.00    -0.219 NA
ATOM      3  C   UNL     1      -1.180 197.631  21.028  1.00  0.00     0.224 A 
ATOM      4  N   UNL     1      -1.214 197.303  19.726  1.00  0.00    -0.236 NA
ATOM      5  C   UNL     1      -0.575 196.187  19.305  1.00  0.00     0.080 A 
ATOM      6  C   UNL     1      -0.622 195.867  17.967  1.00  0.00     0.079 A 
ATOM      7  C   UNL     1       0.001 194.749  17.455  1.00  0.00     0.163 A 
ATOM      8  C   UNL     1       0.714 193.909  18.354  1.00  0.00     0.162 A 
ATOM      9  C   UNL     1       0.728 194.274  19.683  1.00  0.00     0.064 A 
ATOM     10  C   UNL     1       0.104 195.390  20.186  1.00  0.00     0.047 A 
ENDROOT
BRANCH   1  11
ATOM     11  N   UNL     1       0.837 194.933  22.486  1.00  0.00    -0.340 N 
ATOM     12  H   UNL     1       1.119 193.970  22.193  1.00  0.00     0.168 HD
BRANCH  11  13
ATOM     13  C   UNL     1       1.197 195.303  23.800  1.00  0.00     0.041 A 
ATOM     14  C   UNL     1       0.439 195.938  26.023  1.00  0.00     0.026 A 
ATOM     15  C   UNL     1       1.734 196.052  26.461  1.00  0.00     0.017 A 
ATOM     16  C   UNL     1       0.177 195.572  24.725  1.00  0.00     0.043 A 
ATOM     17  C   UNL     1       2.748 195.800  25.596  1.00  0.00     0.003 A 
ATOM     18  C   UNL     1       2.475 195.428  24.274  1.00  0.00     0.026 A 
BRANCH  14  19
ATOM     19  C   UNL     1      -0.644 196.204  26.935  1.00  0.00    -0.070 C 
ATOM     20  C   UNL     1      -1.533 196.425  27.705  1.00  0.00     0.010 C 
ENDBRANCH  14  19
ENDBRANCH  11  13
ENDBRANCH   1  11
BRANCH   8  21
ATOM     21  O   UNL     1       1.309 192.830  17.794  1.00  0.00    -0.487 OA
BRANCH  21  22
ATOM     22  C   UNL     1       2.550 192.291  18.021  1.00  0.00     0.258 C 
BRANCH  22  23
ATOM     23  C   UNL     1       3.660 193.189  17.602  1.00  0.00     0.201 C 
BRANCH  23  24
ATOM     24  O   UNL     1       4.683 193.312  18.542  1.00  0.00    -0.381 OA
ATOM     25  C   UNL     1       4.410 194.181  19.569  1.00  0.00     0.195 C 
ENDBRANCH  23  24
ENDBRANCH  22  23
ENDBRANCH  21  22
ENDBRANCH   8  21
BRANCH   7  26
ATOM     26  O   UNL     1      -0.003 194.372  16.159  1.00  0.00    -0.487 OA
BRANCH  26  27
ATOM     27  C   UNL     1      -0.542 194.899  15.008  1.00  0.00     0.258 C 
BRANCH  27  28
ATOM     28  C   UNL     1      -0.208 194.235  13.720  1.00  0.00     0.201 C 
BRANCH  28  29
ATOM     29  O   UNL     1       0.831 194.886  13.088  1.00  0.00    -0.381 OA
ATOM     30  C   UNL     1       1.963 194.136  12.853  1.00  0.00     0.195 C 
ENDBRANCH  28  29
ENDBRANCH  27  28
ENDBRANCH  26  27
ENDBRANCH   7  26
TORSDOF 11
ENDMDL
