MODEL 1
REMARK VINA RESULT:    -6.357      0.000      0.000
REMARK INTER + INTRA:         -11.819
REMARK INTER:                 -10.445
REMARK INTRA:                  -1.374
REMARK UNBOUND:                -1.374
REMARK SMILES C#Cc1cccc(Nc2ncnc3cc(OCCOC)c(OCCOC)cc23)c1
REMARK SMILES IDX 9 1 10 2 11 3 12 4 13 5 14 6 15 7 21 8 27 9 28 10 8 11 7 13
REMARK SMILES IDX 3 14 4 15 29 16 5 17 6 18 2 19 1 20 22 21 23 22 24 23 25 24
REMARK SMILES IDX 26 25 16 26 17 27 18 28 19 29 20 30
REMARK H PARENT 8 12
ROOT
ATOM      1  C   UNL     1       0.449  52.535 -23.532  1.00  0.00     0.141 A 
ATOM      2  N   UNL     1       1.009  53.675 -23.944  1.00  0.00    -0.219 NA
ATOM      3  C   UNL     1       1.563  54.599 -23.162  1.00  0.00     0.224 A 
ATOM      4  N   UNL     1       1.577  54.401 -21.833  1.00  0.00    -0.236 NA
ATOM      5  C   UNL     1       1.031  53.272 -21.324  1.00  0.00     0.080 A 
ATOM      6  C   UNL     1       1.055  53.086 -19.960  1.00  0.00     0.079 A 
ATOM      7  C   UNL     1       0.522  51.966 -19.360  1.00  0.00     0.163 A 
ATOM      8  C   UNL     1      -0.072  50.978 -20.194  1.00  0.00     0.162 A 
ATOM      9  C   UNL     1      -0.068  51.213 -21.552  1.00  0.00     0.064 A 
ATOM     10  C   UNL     1       0.466  52.331 -22.143  1.00  0.00     0.047 A 
ENDROOT
BRANCH   1  11
ATOM     11  N   UNL     1      -0.128  51.589 -24.408  1.00  0.00    -0.340 N 
ATOM     12  H   UNL     1       0.506  50.887 -24.852  1.00  0.00     0.168 HD
BRANCH  11  13
ATOM     13  C   UNL     1      -1.493  51.487 -24.754  1.00  0.00     0.041 A 
ATOM     14  C   UNL     1      -3.157  50.503 -26.231  1.00  0.00     0.026 A 
ATOM     15  C   UNL     1      -4.167  51.164 -25.578  1.00  0.00     0.017 A 
ATOM     16  C   UNL     1      -1.853  50.660 -25.828  1.00  0.00     0.043 A 
ATOM     17  C   UNL     1      -3.858  51.973 -24.534  1.00  0.00     0.003 A 
ATOM     18  C   UNL     1      -2.527  52.129 -24.129  1.00  0.00     0.026 A 
BRANCH  14  19
ATOM     19  C   UNL     1      -3.475  49.641 -27.342  1.00  0.00    -0.070 C 
ATOM     20  C   UNL     1      -3.728  48.935 -28.273  1.00  0.00     0.010 C 
ENDBRANCH  14  19
ENDBRANCH  11  13
ENDBRANCH   1  11
BRANCH   8  21
ATOM     21  O   UNL     1      -0.583  49.904 -19.549  1.00  0.00    -0.487 OA
BRANCH  21  22
ATOM     22  C   UNL     1      -1.867  49.421 -19.521  1.00  0.00     0.258 C 
BRANCH  22  23
ATOM     23  C   UNL     1      -2.854  50.422 -19.032  1.00  0.00     0.201 C 
BRANCH  23  24
ATOM     24  O   UNL     1      -3.621  51.008 -20.038  1.00  0.00    -0.381 OA
ATOM     25  C   UNL     1      -3.805  50.220 -21.146  1.00  0.00     0.195 C 
ENDBRANCH  23  24
ENDBRANCH  22  23
ENDBRANCH  21  22
ENDBRANCH   8  21
BRANCH   7  26
ATOM     26  O   UNL     1       0.511  51.716 -18.034  1.00  0.00    -0.487 OA
BRANCH  26  27
ATOM     27  C   UNL     1       1.476  51.377 -17.113  1.00  0.00     0.258 C 
BRANCH  27  28
ATOM     28  C   UNL     1       2.092  52.474 -16.321  1.00  0.00     0.201 C 
BRANCH  28  29
ATOM     29  O   UNL     1       3.432  52.603 -16.622  1.00  0.00    -0.381 OA
ATOM     30  C   UNL     1       4.296  52.627 -15.548  1.00  0.00     0.195 C 
ENDBRANCH  28  29
ENDBRANCH  27  28
ENDBRANCH  26  27
ENDBRANCH   7  26
TORSDOF 11
ENDMDL
