MODEL 1
REMARK VINA RESULT:    -7.524      0.000      0.000
REMARK INTER + INTRA:         -13.040
REMARK INTER:                 -11.043
REMARK INTRA:                  -1.997
REMARK UNBOUND:                -1.997
REMARK SMILES COc1cc2ncnc(Nc3ccc(F)c(Cl)c3)c2cc1OCCCN1CCOCC1
REMARK SMILES IDX 22 1 21 2 3 3 4 4 5 5 20 6 6 7 19 8 7 9 9 10 8 11 2 12 1 13
REMARK SMILES IDX 10 14 11 16 12 17 18 18 13 19 16 20 14 21 17 22 15 23 23 24
REMARK SMILES IDX 24 25 25 26 26 27 27 28 31 29 28 30 30 31 29 32
REMARK H PARENT 10 15
ROOT
ATOM      1  O   UNL     1      -1.839  48.776 -20.064  1.00  0.00    -0.490 OA
ENDROOT
BRANCH   1   2
ATOM      2  C   UNL     1      -0.925  49.823 -19.947  1.00  0.00     0.162 A 
ATOM      3  C   UNL     1      -0.237  49.972 -18.761  1.00  0.00     0.162 A 
ATOM      4  C   UNL     1       0.662  51.013 -18.664  1.00  0.00     0.079 A 
ATOM      5  C   UNL     1       0.865  51.876 -19.719  1.00  0.00     0.080 A 
ATOM      6  C   UNL     1      -0.708  50.701 -21.000  1.00  0.00     0.064 A 
ATOM      7  N   UNL     1       1.758  52.880 -19.572  1.00  0.00    -0.236 NA
ATOM      8  C   UNL     1       0.185  51.745 -20.919  1.00  0.00     0.047 A 
ATOM      9  C   UNL     1       1.974  53.746 -20.604  1.00  0.00     0.224 A 
ATOM     10  C   UNL     1       0.405  52.631 -21.981  1.00  0.00     0.141 A 
ATOM     11  N   UNL     1       1.304  53.592 -21.745  1.00  0.00    -0.219 NA
BRANCH   3  12
ATOM     12  O   UNL     1      -0.470  49.082 -17.721  1.00  0.00    -0.493 OA
ATOM     13  C   UNL     1      -1.241  49.530 -16.599  1.00  0.00     0.278 C 
ENDBRANCH   3  12
BRANCH  10  14
ATOM     14  N   UNL     1      -0.302  52.474 -23.198  1.00  0.00    -0.340 N 
ATOM     15  H   UNL     1      -1.337  52.321 -23.151  1.00  0.00     0.168 HD
BRANCH  14  16
ATOM     16  C   UNL     1       0.254  52.506 -24.495  1.00  0.00     0.041 A 
ATOM     17  C   UNL     1       1.346  51.670 -24.780  1.00  0.00     0.029 A 
ATOM     18  C   UNL     1      -0.177  53.289 -25.528  1.00  0.00     0.049 A 
ATOM     19  C   UNL     1       1.949  51.633 -26.009  1.00  0.00     0.043 A 
ATOM     20  C   UNL     1       0.432  53.254 -26.775  1.00  0.00     0.078 A 
ATOM     21  C   UNL     1       1.500  52.429 -27.036  1.00  0.00     0.141 A 
ATOM     22  Cl  UNL     1      -0.153  54.270 -28.056  1.00  0.00    -0.081 Cl
ATOM     23  F   UNL     1       2.062  52.427 -28.265  1.00  0.00    -0.205 F 
ENDBRANCH  14  16
ENDBRANCH  10  14
ENDBRANCH   1   2
BRANCH   1  24
ATOM     24  C   UNL     1      -1.699  47.753 -21.029  1.00  0.00     0.231 C 
BRANCH  24  25
ATOM     25  C   UNL     1      -2.948  47.735 -21.862  1.00  0.00     0.057 C 
BRANCH  25  26
ATOM     26  C   UNL     1      -2.817  48.558 -23.118  1.00  0.00     0.088 C 
BRANCH  26  27
ATOM     27  N   UNL     1      -4.029  49.279 -23.371  1.00  0.00    -0.299 NA
ATOM     28  C   UNL     1      -4.206  50.283 -22.337  1.00  0.00     0.113 C 
ATOM     29  C   UNL     1      -4.142  49.852 -24.674  1.00  0.00     0.113 C 
ATOM     30  C   UNL     1      -4.231  51.680 -22.934  1.00  0.00     0.175 C 
ATOM     31  C   UNL     1      -3.096  50.934 -24.824  1.00  0.00     0.175 C 
ATOM     32  O   UNL     1      -3.167  51.864 -23.814  1.00  0.00    -0.379 OA
ENDBRANCH  26  27
ENDBRANCH  25  26
ENDBRANCH  24  25
ENDBRANCH   1  24
TORSDOF 8
ENDMDL
