MODEL 1
REMARK VINA RESULT:    -8.306      0.000      0.000
REMARK INTER + INTRA:         -13.489
REMARK INTER:                 -12.190
REMARK INTRA:                  -1.299
REMARK UNBOUND:                -1.299
REMARK SMILES COc1cc2ncnc(Nc3ccc(F)c(Cl)c3)c2cc1OCCCN1CCOCC1
REMARK SMILES IDX 22 1 21 2 3 3 4 4 5 5 20 6 6 7 19 8 7 9 9 10 8 11 2 12 1 13
REMARK SMILES IDX 10 14 11 16 12 17 18 18 13 19 16 20 14 21 17 22 15 23 23 24
REMARK SMILES IDX 24 25 25 26 26 27 27 28 31 29 28 30 30 31 29 32
REMARK H PARENT 10 15
ROOT
ATOM      1  O   UNL     1       1.620 192.589  18.391  1.00  0.00    -0.490 OA
ENDROOT
BRANCH   1   2
ATOM      2  C   UNL     1       0.933 193.764  18.697  1.00  0.00     0.162 A 
ATOM      3  C   UNL     1       0.357 194.481  17.668  1.00  0.00     0.162 A 
ATOM      4  C   UNL     1      -0.318 195.639  17.990  1.00  0.00     0.079 A 
ATOM      5  C   UNL     1      -0.413 196.066  19.296  1.00  0.00     0.080 A 
ATOM      6  C   UNL     1       0.827 194.208  20.007  1.00  0.00     0.064 A 
ATOM      7  N   UNL     1      -1.086 197.209  19.557  1.00  0.00    -0.236 NA
ATOM      8  C   UNL     1       0.158 195.362  20.344  1.00  0.00     0.047 A 
ATOM      9  C   UNL     1      -1.190 197.650  20.845  1.00  0.00     0.224 A 
ATOM     10  C   UNL     1       0.052 195.810  21.667  1.00  0.00     0.141 A 
ATOM     11  N   UNL     1      -0.630 196.949  21.830  1.00  0.00    -0.219 NA
BRANCH   3  12
ATOM     12  O   UNL     1       0.475 194.017  16.365  1.00  0.00    -0.493 OA
ATOM     13  C   UNL     1      -0.282 194.670  15.337  1.00  0.00     0.278 C 
ENDBRANCH   3  12
BRANCH  10  14
ATOM     14  N   UNL     1       0.643 195.072  22.720  1.00  0.00    -0.340 N 
ATOM     15  H   UNL     1       1.164 194.197  22.477  1.00  0.00     0.168 HD
BRANCH  14  16
ATOM     16  C   UNL     1       0.604 195.400  24.093  1.00  0.00     0.041 A 
ATOM     17  C   UNL     1       1.813 195.669  24.755  1.00  0.00     0.029 A 
ATOM     18  C   UNL     1      -0.522 195.484  24.860  1.00  0.00     0.049 A 
ATOM     19  C   UNL     1       1.871 195.995  26.084  1.00  0.00     0.043 A 
ATOM     20  C   UNL     1      -0.468 195.815  26.206  1.00  0.00     0.078 A 
ATOM     21  C   UNL     1       0.725 196.075  26.839  1.00  0.00     0.141 A 
ATOM     22  Cl  UNL     1      -1.929 195.909  27.139  1.00  0.00    -0.081 Cl
ATOM     23  F   UNL     1       0.733 196.394  28.153  1.00  0.00    -0.205 F 
ENDBRANCH  14  16
ENDBRANCH  10  14
ENDBRANCH   1   2
BRANCH   1  24
ATOM     24  C   UNL     1       2.896 192.297  18.924  1.00  0.00     0.231 C 
BRANCH  24  25
ATOM     25  C   UNL     1       3.838 193.376  18.475  1.00  0.00     0.057 C 
BRANCH  25  26
ATOM     26  C   UNL     1       4.487 194.096  19.629  1.00  0.00     0.088 C 
BRANCH  26  27
ATOM     27  N   UNL     1       4.523 193.253  20.787  1.00  0.00    -0.299 NA
ATOM     28  C   UNL     1       5.904 192.915  21.083  1.00  0.00     0.113 C 
ATOM     29  C   UNL     1       3.856 193.766  21.941  1.00  0.00     0.113 C 
ATOM     30  C   UNL     1       6.302 193.416  22.461  1.00  0.00     0.175 C 
ATOM     31  C   UNL     1       4.593 194.995  22.424  1.00  0.00     0.175 C 
ATOM     32  O   UNL     1       5.928 194.746  22.635  1.00  0.00    -0.379 OA
ENDBRANCH  26  27
ENDBRANCH  25  26
ENDBRANCH  24  25
ENDBRANCH   1  24
TORSDOF 8
ENDMDL
