MODEL 1
REMARK VINA RESULT:    -6.115      0.000      0.000
REMARK INTER + INTRA:          -8.176
REMARK INTER:                  -7.724
REMARK INTRA:                  -0.453
REMARK UNBOUND:                -0.453
REMARK SMILES CC(C)Cc1ccc(C(C)C(=O)O)cc1
REMARK SMILES IDX 5 1 6 2 7 3 8 4 14 5 15 6 4 7 2 8 1 9 3 10 9 11 10 12 11 13
REMARK SMILES IDX 12 14 13 15
REMARK H PARENT 13 16
ROOT
ATOM      1  C   UNL     1       0.139  52.519 -20.823  1.00  0.00    -0.048 A 
ATOM      2  C   UNL     1      -0.322  51.552 -21.686  1.00  0.00     0.004 A 
ATOM      3  C   UNL     1      -0.057  51.587 -23.040  1.00  0.00     0.005 A 
ATOM      4  C   UNL     1       0.703  52.637 -23.561  1.00  0.00    -0.034 A 
ATOM      5  C   UNL     1       1.166  53.609 -22.693  1.00  0.00     0.005 A 
ATOM      6  C   UNL     1       0.886  53.545 -21.354  1.00  0.00     0.004 A 
ENDROOT
BRANCH   1   7
ATOM      7  C   UNL     1      -0.200  52.388 -19.393  1.00  0.00     0.038 C 
BRANCH   7   8
ATOM      8  C   UNL     1       0.667  51.338 -18.691  1.00  0.00    -0.013 C 
ATOM      9  C   UNL     1       1.377  52.047 -17.549  1.00  0.00     0.008 C 
ATOM     10  C   UNL     1      -0.175  50.239 -18.126  1.00  0.00     0.008 C 
ENDBRANCH   7   8
ENDBRANCH   1   7
BRANCH   4  11
ATOM     11  C   UNL     1       1.037  52.764 -24.983  1.00  0.00     0.126 C 
ATOM     12  C   UNL     1       1.229  51.419 -25.661  1.00  0.00     0.025 C 
BRANCH  11  13
ATOM     13  C   UNL     1       0.067  53.554 -25.761  1.00  0.00     0.310 C 
ATOM     14  O   UNL     1       0.380  54.431 -26.599  1.00  0.00    -0.252 OA
BRANCH  13  15
ATOM     15  O   UNL     1      -1.283  53.307 -25.546  1.00  0.00    -0.481 OA
ATOM     16  H   UNL     1      -1.839  52.648 -26.074  1.00  0.00     0.296 HD
ENDBRANCH  13  15
ENDBRANCH  11  13
ENDBRANCH   4  11
TORSDOF 5
ENDMDL
