MODEL 1
REMARK VINA RESULT:    -6.214      0.000      0.000
REMARK INTER + INTRA:          -8.377
REMARK INTER:                  -7.849
REMARK INTRA:                  -0.528
REMARK UNBOUND:                -0.528
REMARK SMILES CC(C)Cc1ccc(C(C)C(=O)O)cc1
REMARK SMILES IDX 5 1 6 2 7 3 8 4 14 5 15 6 4 7 2 8 1 9 3 10 9 11 10 12 11 13
REMARK SMILES IDX 12 14 13 15
REMARK H PARENT 13 16
ROOT
ATOM      1  C   UNL     1       1.094 195.130  19.755  1.00  0.00    -0.048 A 
ATOM      2  C   UNL     1       0.032 195.978  19.968  1.00  0.00     0.004 A 
ATOM      3  C   UNL     1      -0.415 196.291  21.237  1.00  0.00     0.005 A 
ATOM      4  C   UNL     1       0.226 195.733  22.345  1.00  0.00    -0.034 A 
ATOM      5  C   UNL     1       1.294 194.881  22.128  1.00  0.00     0.005 A 
ATOM      6  C   UNL     1       1.713 194.590  20.858  1.00  0.00     0.004 A 
ENDROOT
BRANCH   1   7
ATOM      7  C   UNL     1       1.493 194.861  18.360  1.00  0.00     0.038 C 
BRANCH   7   8
ATOM      8  C   UNL     1       0.509 193.925  17.651  1.00  0.00    -0.013 C 
ATOM      9  C   UNL     1      -0.184 194.748  16.577  1.00  0.00     0.008 C 
ATOM     10  C   UNL     1       1.227 192.788  16.997  1.00  0.00     0.008 C 
ENDBRANCH   7   8
ENDBRANCH   1   7
BRANCH   4  11
ATOM     11  C   UNL     1      -0.173 196.003  23.729  1.00  0.00     0.126 C 
ATOM     12  C   UNL     1      -0.284 194.739  24.564  1.00  0.00     0.025 C 
BRANCH  11  13
ATOM     13  C   UNL     1       0.700 196.960  24.431  1.00  0.00     0.310 C 
ATOM     14  O   UNL     1       1.607 196.633  25.232  1.00  0.00    -0.252 OA
BRANCH  13  15
ATOM     15  O   UNL     1       0.500 198.312  24.187  1.00  0.00    -0.481 OA
ATOM     16  H   UNL     1      -0.269 198.857  24.555  1.00  0.00     0.296 HD
ENDBRANCH  13  15
ENDBRANCH  11  13
ENDBRANCH   4  11
TORSDOF 5
ENDMDL
