MODEL 1
REMARK VINA RESULT:    -8.729      0.000      0.000
REMARK INTER + INTRA:         -17.662
REMARK INTER:                 -15.363
REMARK INTRA:                  -2.299
REMARK UNBOUND:                -2.299
REMARK SMILES C=CC(=O)Nc1cc(Nc2ncc(C(=O)OC(C)C)c(-c3cn(C)c4ccccc34)n2)c(OC)cc1N(C)CCN(C)C
REMARK SMILES IDX 6 1 7 2 8 3 32 4 35 5 36 6 5 7 3 8 4 9 2 11 1 12 37 13 38 14
REMARK SMILES IDX 39 15 40 16 41 17 42 18 43 19 9 20 10 22 11 23 31 24 12 25
REMARK SMILES IDX 20 26 13 27 21 28 22 29 30 30 23 31 29 32 25 33 28 34 26 35
REMARK SMILES IDX 27 36 24 37 14 38 15 39 16 40 17 41 18 42 19 43 33 44 34 45
REMARK H PARENT 5 10 9 21
ROOT
ATOM      1  C   UNL     1      -0.289  49.628 -17.075  1.00  0.00     0.067 A 
ATOM      2  C   UNL     1      -0.179  50.730 -17.892  1.00  0.00     0.058 A 
ATOM      3  C   UNL     1       0.575  51.845 -17.607  1.00  0.00     0.086 A 
ATOM      4  C   UNL     1       1.274  51.824 -16.386  1.00  0.00     0.144 A 
ATOM      5  C   UNL     1       1.204  50.751 -15.529  1.00  0.00     0.076 A 
ATOM      6  C   UNL     1       0.424  49.674 -15.888  1.00  0.00     0.064 A 
ENDROOT
BRANCH   1   7
ATOM      7  N   UNL     1      -1.057  48.479 -17.321  1.00  0.00    -0.321 N 
ATOM      8  C   UNL     1      -2.465  48.407 -17.466  1.00  0.00     0.247 C 
ATOM      9  O   UNL     1      -3.175  49.435 -17.380  1.00  0.00    -0.270 OA
ATOM     10  H   UNL     1      -0.554  47.562 -17.407  1.00  0.00     0.170 HD
BRANCH   8  11
ATOM     11  C   UNL     1      -3.148  47.149 -17.720  1.00  0.00     0.064 C 
ATOM     12  C   UNL     1      -4.105  46.985 -18.612  1.00  0.00     0.014 C 
ENDBRANCH   8  11
ENDBRANCH   1   7
BRANCH   6  13
ATOM     13  N   UNL     1       0.415  48.575 -14.954  1.00  0.00    -0.372 N 
ATOM     14  C   UNL     1       1.519  47.611 -15.048  1.00  0.00     0.143 C 
BRANCH  13  15
ATOM     15  C   UNL     1      -0.605  48.393 -13.970  1.00  0.00     0.131 C 
BRANCH  15  16
ATOM     16  C   UNL     1      -1.201  49.640 -13.414  1.00  0.00     0.105 C 
BRANCH  16  17
ATOM     17  N   UNL     1      -2.560  49.881 -13.789  1.00  0.00    -0.308 NA
ATOM     18  C   UNL     1      -2.768  51.211 -14.366  1.00  0.00     0.105 C 
ATOM     19  C   UNL     1      -3.486  49.670 -12.691  1.00  0.00     0.105 C 
ENDBRANCH  16  17
ENDBRANCH  15  16
ENDBRANCH  13  15
ENDBRANCH   6  13
BRANCH   3  20
ATOM     20  N   UNL     1       0.706  52.983 -18.421  1.00  0.00    -0.321 N 
ATOM     21  H   UNL     1       0.801  53.923 -17.928  1.00  0.00     0.170 HD
BRANCH  20  22
ATOM     22  C   UNL     1       0.729  53.031 -19.831  1.00  0.00     0.227 A 
ATOM     23  N   UNL     1       1.556  53.780 -20.569  1.00  0.00    -0.220 NA
ATOM     24  N   UNL     1      -0.143  52.260 -20.526  1.00  0.00    -0.212 NA
ATOM     25  C   UNL     1       1.540  53.783 -21.906  1.00  0.00     0.133 A 
ATOM     26  C   UNL     1      -0.206  52.218 -21.862  1.00  0.00     0.093 A 
ATOM     27  C   UNL     1       0.634  52.980 -22.608  1.00  0.00     0.104 A 
BRANCH  26  28
ATOM     28  C   UNL     1      -1.186  51.349 -22.471  1.00  0.00     0.027 A 
ATOM     29  C   UNL     1      -2.097  51.580 -23.485  1.00  0.00     0.096 A 
ATOM     30  C   UNL     1      -1.378  50.004 -22.129  1.00  0.00     0.009 A 
ATOM     31  N   UNL     1      -2.785  50.454 -23.733  1.00  0.00    -0.350 N 
ATOM     32  C   UNL     1      -0.772  49.192 -21.190  1.00  0.00     0.011 A 
ATOM     33  C   UNL     1      -2.374  49.466 -22.923  1.00  0.00     0.048 A 
ATOM     34  C   UNL     1      -1.130  47.856 -21.016  1.00  0.00     0.001 A 
ATOM     35  C   UNL     1      -2.719  48.144 -22.741  1.00  0.00     0.027 A 
ATOM     36  C   UNL     1      -2.134  47.316 -21.816  1.00  0.00     0.002 A 
ATOM     37  C   UNL     1      -3.842  50.263 -24.729  1.00  0.00     0.149 C 
ENDBRANCH  26  28
BRANCH  27  38
ATOM     38  C   UNL     1       0.640  53.033 -24.062  1.00  0.00     0.342 C 
ATOM     39  O   UNL     1       0.103  54.044 -24.632  1.00  0.00    -0.246 OA
BRANCH  38  40
ATOM     40  O   UNL     1       1.173  52.087 -24.891  1.00  0.00    -0.459 OA
BRANCH  40  41
ATOM     41  C   UNL     1       0.869  51.954 -26.260  1.00  0.00     0.170 C 
ATOM     42  C   UNL     1       2.067  51.777 -27.133  1.00  0.00     0.052 C 
ATOM     43  C   UNL     1      -0.047  50.764 -26.442  1.00  0.00     0.052 C 
ENDBRANCH  40  41
ENDBRANCH  38  40
ENDBRANCH  27  38
ENDBRANCH  20  22
ENDBRANCH   3  20
BRANCH   4  44
ATOM     44  O   UNL     1       2.047  52.895 -16.027  1.00  0.00    -0.494 OA
ATOM     45  C   UNL     1       3.436  52.861 -16.194  1.00  0.00     0.278 C 
ENDBRANCH   4  44
TORSDOF 13
ENDMDL
