MODEL 1
REMARK VINA RESULT:    -7.450      0.000      0.000
REMARK INTER + INTRA:         -15.429
REMARK INTER:                 -13.112
REMARK INTRA:                  -2.317
REMARK UNBOUND:                -2.317
REMARK SMILES C=CC(=O)Nc1cc(Nc2ncc(C(=O)OC(C)C)c(-c3cn(C)c4ccccc34)n2)c(OC)cc1N(C)CCN(C)C
REMARK SMILES IDX 6 1 7 2 8 3 32 4 35 5 36 6 5 7 3 8 4 9 2 11 1 12 37 13 38 14
REMARK SMILES IDX 39 15 40 16 41 17 42 18 43 19 9 20 10 22 11 23 31 24 12 25
REMARK SMILES IDX 20 26 13 27 21 28 22 29 30 30 23 31 29 32 25 33 28 34 26 35
REMARK SMILES IDX 27 36 24 37 14 38 15 39 16 40 17 41 18 42 19 43 33 44 34 45
REMARK H PARENT 5 10 9 21
ROOT
ATOM      1  C   UNL     1       0.221  49.452 -16.569  1.00  0.00     0.067 A 
ATOM      2  C   UNL     1       0.458  50.557 -17.354  1.00  0.00     0.058 A 
ATOM      3  C   UNL     1       1.299  51.593 -17.017  1.00  0.00     0.086 A 
ATOM      4  C   UNL     1       1.948  51.483 -15.774  1.00  0.00     0.144 A 
ATOM      5  C   UNL     1       1.751  50.403 -14.946  1.00  0.00     0.076 A 
ATOM      6  C   UNL     1       0.892  49.409 -15.358  1.00  0.00     0.064 A 
ENDROOT
BRANCH   1   7
ATOM      7  N   UNL     1      -0.639  48.384 -16.868  1.00  0.00    -0.321 N 
ATOM      8  C   UNL     1      -2.032  48.450 -17.115  1.00  0.00     0.247 C 
ATOM      9  O   UNL     1      -2.641  49.545 -17.083  1.00  0.00    -0.270 OA
ATOM     10  H   UNL     1      -0.224  47.420 -16.916  1.00  0.00     0.170 HD
BRANCH   8  11
ATOM     11  C   UNL     1      -2.818  47.264 -17.417  1.00  0.00     0.064 C 
ATOM     12  C   UNL     1      -4.037  47.282 -17.918  1.00  0.00     0.014 C 
ENDBRANCH   8  11
ENDBRANCH   1   7
BRANCH   6  13
ATOM     13  N   UNL     1       0.750  48.296 -14.451  1.00  0.00    -0.372 N 
ATOM     14  C   UNL     1       1.921  47.424 -14.279  1.00  0.00     0.143 C 
BRANCH  13  15
ATOM     15  C   UNL     1      -0.456  48.015 -13.738  1.00  0.00     0.131 C 
BRANCH  15  16
ATOM     16  C   UNL     1      -1.073  49.169 -13.026  1.00  0.00     0.105 C 
BRANCH  16  17
ATOM     17  N   UNL     1      -2.192  49.763 -13.691  1.00  0.00    -0.308 NA
ATOM     18  C   UNL     1      -2.011  51.192 -13.951  1.00  0.00     0.105 C 
ATOM     19  C   UNL     1      -3.439  49.544 -12.982  1.00  0.00     0.105 C 
ENDBRANCH  16  17
ENDBRANCH  15  16
ENDBRANCH  13  15
ENDBRANCH   6  13
BRANCH   3  20
ATOM     20  N   UNL     1       1.560  52.732 -17.798  1.00  0.00    -0.321 N 
ATOM     21  H   UNL     1       1.874  53.611 -17.284  1.00  0.00     0.170 HD
BRANCH  20  22
ATOM     22  C   UNL     1       1.456  52.852 -19.200  1.00  0.00     0.227 A 
ATOM     23  N   UNL     1       2.279  53.560 -19.981  1.00  0.00    -0.220 NA
ATOM     24  N   UNL     1       0.454  52.202 -19.841  1.00  0.00    -0.212 NA
ATOM     25  C   UNL     1       2.140  53.635 -21.309  1.00  0.00     0.133 A 
ATOM     26  C   UNL     1       0.263  52.237 -21.165  1.00  0.00     0.093 A 
ATOM     27  C   UNL     1       1.100  52.957 -21.955  1.00  0.00     0.104 A 
BRANCH  26  28
ATOM     28  C   UNL     1      -0.848  51.495 -21.713  1.00  0.00     0.027 A 
ATOM     29  C   UNL     1      -1.862  51.882 -22.570  1.00  0.00     0.096 A 
ATOM     30  C   UNL     1      -1.094  50.136 -21.472  1.00  0.00     0.009 A 
ATOM     31  N   UNL     1      -2.657  50.830 -22.825  1.00  0.00    -0.350 N 
ATOM     32  C   UNL     1      -0.435  49.199 -20.701  1.00  0.00     0.011 A 
ATOM     33  C   UNL     1      -2.220  49.742 -22.171  1.00  0.00     0.048 A 
ATOM     34  C   UNL     1      -0.866  47.877 -20.603  1.00  0.00     0.001 A 
ATOM     35  C   UNL     1      -2.636  48.433 -22.065  1.00  0.00     0.027 A 
ATOM     36  C   UNL     1      -2.000  47.482 -21.306  1.00  0.00     0.002 A 
ATOM     37  C   UNL     1      -3.844  50.805 -23.683  1.00  0.00     0.149 C 
ENDBRANCH  26  28
BRANCH  27  38
ATOM     38  C   UNL     1       0.976  53.086 -23.399  1.00  0.00     0.342 C 
ATOM     39  O   UNL     1       0.804  54.255 -23.888  1.00  0.00    -0.246 OA
BRANCH  38  40
ATOM     40  O   UNL     1       1.025  52.058 -24.297  1.00  0.00    -0.459 OA
BRANCH  40  41
ATOM     41  C   UNL     1       0.522  52.114 -25.612  1.00  0.00     0.170 C 
ATOM     42  C   UNL     1       1.573  52.020 -26.668  1.00  0.00     0.052 C 
ATOM     43  C   UNL     1      -0.465  50.984 -25.803  1.00  0.00     0.052 C 
ENDBRANCH  40  41
ENDBRANCH  38  40
ENDBRANCH  27  38
ENDBRANCH  20  22
ENDBRANCH   3  20
BRANCH   4  44
ATOM     44  O   UNL     1       2.801  52.472 -15.364  1.00  0.00    -0.494 OA
ATOM     45  C   UNL     1       4.049  52.156 -14.814  1.00  0.00     0.278 C 
ENDBRANCH   4  44
TORSDOF 13
ENDMDL
