MODEL 1
REMARK VINA RESULT:    -7.106      0.000      0.000
REMARK INTER + INTRA:         -13.537
REMARK INTER:                 -11.260
REMARK INTRA:                  -2.278
REMARK UNBOUND:                -2.278
REMARK SMILES C=CC(=O)Nc1cc(Nc2nccc(-c3cn(C)c4ccccc34)n2)c(OC)cc1N(C)CCN(C)C
REMARK SMILES IDX 6 1 7 2 8 3 26 4 29 5 30 6 5 7 3 8 4 9 2 11 1 12 31 13 32 14
REMARK SMILES IDX 33 15 34 16 35 17 36 18 37 19 9 20 10 22 11 23 25 24 12 25
REMARK SMILES IDX 14 26 13 27 15 28 16 29 24 30 17 31 23 32 19 33 22 34 20 35
REMARK SMILES IDX 21 36 18 37 27 38 28 39
REMARK H PARENT 5 10 9 21
ROOT
ATOM      1  C   UNL     1      -1.005  50.340 -21.940  1.00  0.00     0.067 A 
ATOM      2  C   UNL     1      -0.992  49.412 -20.936  1.00  0.00     0.058 A 
ATOM      3  C   UNL     1      -1.875  48.355 -20.815  1.00  0.00     0.086 A 
ATOM      4  C   UNL     1      -2.849  48.270 -21.832  1.00  0.00     0.144 A 
ATOM      5  C   UNL     1      -2.887  49.189 -22.855  1.00  0.00     0.076 A 
ATOM      6  C   UNL     1      -1.978  50.212 -22.910  1.00  0.00     0.064 A 
ENDROOT
BRANCH   1   7
ATOM      7  N   UNL     1      -0.104  51.419 -22.081  1.00  0.00    -0.321 N 
ATOM      8  C   UNL     1      -0.007  52.551 -21.246  1.00  0.00     0.247 C 
ATOM      9  O   UNL     1      -0.736  52.735 -20.245  1.00  0.00    -0.270 OA
ATOM     10  H   UNL     1       0.591  51.403 -22.891  1.00  0.00     0.170 HD
BRANCH   8  11
ATOM     11  C   UNL     1       0.985  53.603 -21.519  1.00  0.00     0.064 C 
ATOM     12  C   UNL     1       2.118  53.634 -20.807  1.00  0.00     0.014 C 
ENDBRANCH   8  11
ENDBRANCH   1   7
BRANCH   6  13
ATOM     13  N   UNL     1      -2.101  51.124 -24.009  1.00  0.00    -0.372 N 
ATOM     14  C   UNL     1      -2.905  52.330 -23.938  1.00  0.00     0.143 C 
BRANCH  13  15
ATOM     15  C   UNL     1      -1.405  50.864 -25.245  1.00  0.00     0.131 C 
BRANCH  15  16
ATOM     16  C   UNL     1      -0.619  51.987 -25.801  1.00  0.00     0.105 C 
BRANCH  16  17
ATOM     17  N   UNL     1       0.562  52.337 -25.090  1.00  0.00    -0.308 NA
ATOM     18  C   UNL     1       1.782  51.850 -25.675  1.00  0.00     0.105 C 
ATOM     19  C   UNL     1       0.641  53.806 -25.133  1.00  0.00     0.105 C 
ENDBRANCH  16  17
ENDBRANCH  15  16
ENDBRANCH  13  15
ENDBRANCH   6  13
BRANCH   3  20
ATOM     20  N   UNL     1      -1.876  47.397 -19.805  1.00  0.00    -0.321 N 
ATOM     21  H   UNL     1      -1.658  46.392 -20.104  1.00  0.00     0.170 HD
BRANCH  20  22
ATOM     22  C   UNL     1      -2.125  47.577 -18.428  1.00  0.00     0.227 A 
ATOM     23  N   UNL     1      -3.188  47.106 -17.782  1.00  0.00    -0.221 NA
ATOM     24  N   UNL     1      -1.216  48.293 -17.717  1.00  0.00    -0.213 NA
ATOM     25  C   UNL     1      -3.353  47.329 -16.483  1.00  0.00     0.117 A 
ATOM     26  C   UNL     1      -1.326  48.555 -16.393  1.00  0.00     0.078 A 
ATOM     27  C   UNL     1      -2.429  48.054 -15.766  1.00  0.00     0.049 A 
BRANCH  26  28
ATOM     28  C   UNL     1      -0.250  49.303 -15.786  1.00  0.00     0.026 A 
ATOM     29  C   UNL     1       0.235  48.986 -14.503  1.00  0.00     0.096 A 
ATOM     30  C   UNL     1       0.530  50.330 -16.193  1.00  0.00     0.009 A 
ATOM     31  N   UNL     1       1.255  49.815 -14.201  1.00  0.00    -0.350 N 
ATOM     32  C   UNL     1       0.571  51.059 -17.348  1.00  0.00     0.011 A 
ATOM     33  C   UNL     1       1.473  50.663 -15.216  1.00  0.00     0.048 A 
ATOM     34  C   UNL     1       1.484  52.071 -17.551  1.00  0.00     0.001 A 
ATOM     35  C   UNL     1       2.387  51.676 -15.417  1.00  0.00     0.027 A 
ATOM     36  C   UNL     1       2.427  52.410 -16.579  1.00  0.00     0.002 A 
ATOM     37  C   UNL     1       2.019  49.816 -12.981  1.00  0.00     0.149 C 
ENDBRANCH  26  28
ENDBRANCH  20  22
ENDBRANCH   3  20
BRANCH   4  38
ATOM     38  O   UNL     1      -3.781  47.244 -21.797  1.00  0.00    -0.494 OA
ATOM     39  C   UNL     1      -5.122  47.567 -21.500  1.00  0.00     0.278 C 
ENDBRANCH   4  38
TORSDOF 10
ENDMDL
