MODEL 1
REMARK VINA RESULT:    -7.988      0.000      0.000
REMARK INTER + INTRA:         -13.802
REMARK INTER:                 -12.191
REMARK INTRA:                  -1.611
REMARK UNBOUND:                -1.611
REMARK SMILES CN(C)C/C=C/C(=O)Nc1cc2c(Nc3ccc(F)c(Cl)c3)ncnc2cc1O[C@H]1CCOC1
REMARK SMILES IDX 7 1 8 2 9 3 6 5 5 6 4 7 2 8 1 9 3 10 10 11 11 12 28 13 12 14
REMARK SMILES IDX 27 15 13 16 26 17 23 18 25 19 24 20 29 21 30 22 31 23 34 24
REMARK SMILES IDX 32 25 33 26 14 27 15 29 16 30 22 31 17 32 20 33 18 34 21 35
REMARK SMILES IDX 19 36
REMARK H PARENT 9 4 14 28
ROOT
ATOM      1  C   UNL     1       0.848  51.611 -19.222  1.00  0.00     0.248 C 
ATOM      2  O   UNL     1       0.079  52.592 -19.075  1.00  0.00    -0.270 OA
ATOM      3  N   UNL     1       0.558  50.612 -20.163  1.00  0.00    -0.319 N 
ATOM      4  H   UNL     1       1.267  49.818 -20.216  1.00  0.00     0.170 HD
ENDROOT
BRANCH   1   5
ATOM      5  C   UNL     1       2.036  51.600 -18.353  1.00  0.00     0.068 C 
BRANCH   5   6
ATOM      6  C   UNL     1       1.990  51.273 -17.076  1.00  0.00    -0.006 C 
BRANCH   6   7
ATOM      7  C   UNL     1       1.071  50.203 -16.600  1.00  0.00     0.111 C 
BRANCH   7   8
ATOM      8  N   UNL     1       1.636  49.334 -15.609  1.00  0.00    -0.306 NA
ATOM      9  C   UNL     1       2.547  50.022 -14.715  1.00  0.00     0.105 C 
ATOM     10  C   UNL     1       0.697  48.543 -14.891  1.00  0.00     0.105 C 
ENDBRANCH   7   8
ENDBRANCH   6   7
ENDBRANCH   5   6
ENDBRANCH   1   5
BRANCH   3  11
ATOM     11  C   UNL     1      -0.545  50.538 -21.030  1.00  0.00     0.085 A 
ATOM     12  C   UNL     1      -0.655  51.126 -22.266  1.00  0.00     0.044 A 
ATOM     13  C   UNL     1      -1.664  49.793 -20.622  1.00  0.00     0.145 A 
ATOM     14  C   UNL     1      -1.756  51.022 -23.080  1.00  0.00     0.045 A 
ATOM     15  C   UNL     1      -2.781  49.671 -21.415  1.00  0.00     0.077 A 
ATOM     16  C   UNL     1      -1.834  51.637 -24.339  1.00  0.00     0.141 A 
ATOM     17  C   UNL     1      -2.833  50.283 -22.642  1.00  0.00     0.080 A 
ATOM     18  N   UNL     1      -2.979  51.429 -24.993  1.00  0.00    -0.219 NA
ATOM     19  N   UNL     1      -3.962  50.124 -23.377  1.00  0.00    -0.236 NA
ATOM     20  C   UNL     1      -4.029  50.716 -24.582  1.00  0.00     0.224 A 
BRANCH  13  21
ATOM     21  O   UNL     1      -1.639  49.179 -19.412  1.00  0.00    -0.486 OA
BRANCH  21  22
ATOM     22  C   UNL     1      -1.841  47.865 -19.055  1.00  0.00     0.201 C 
ATOM     23  C   UNL     1      -0.745  47.281 -18.192  1.00  0.00     0.076 C 
ATOM     24  C   UNL     1      -3.024  47.771 -18.079  1.00  0.00     0.205 C 
ATOM     25  C   UNL     1      -1.503  46.475 -17.160  1.00  0.00     0.164 C 
ATOM     26  O   UNL     1      -2.850  46.505 -17.523  1.00  0.00    -0.377 OA
ENDBRANCH  21  22
ENDBRANCH  13  21
BRANCH  16  27
ATOM     27  N   UNL     1      -0.763  52.414 -24.843  1.00  0.00    -0.340 N 
ATOM     28  H   UNL     1      -0.722  53.421 -24.577  1.00  0.00     0.168 HD
BRANCH  27  29
ATOM     29  C   UNL     1       0.278  51.958 -25.686  1.00  0.00     0.041 A 
ATOM     30  C   UNL     1       1.441  51.443 -25.097  1.00  0.00     0.029 A 
ATOM     31  C   UNL     1       0.257  51.969 -27.053  1.00  0.00     0.049 A 
ATOM     32  C   UNL     1       2.500  50.977 -25.835  1.00  0.00     0.043 A 
ATOM     33  C   UNL     1       1.325  51.500 -27.829  1.00  0.00     0.078 A 
ATOM     34  C   UNL     1       2.446  51.004 -27.208  1.00  0.00     0.141 A 
ATOM     35  Cl  UNL     1       1.234  51.543 -29.577  1.00  0.00    -0.081 Cl
ATOM     36  F   UNL     1       3.451  50.561 -28.000  1.00  0.00    -0.205 F 
ENDBRANCH  27  29
ENDBRANCH  16  27
ENDBRANCH   3  11
TORSDOF 9
ENDMDL
