MODEL 1
REMARK VINA RESULT:    -8.281      0.000      0.000
REMARK INTER + INTRA:         -13.997
REMARK INTER:                 -12.637
REMARK INTRA:                  -1.359
REMARK UNBOUND:                -1.359
REMARK SMILES CN(C)C/C=C/C(=O)Nc1cc2c(Nc3ccc(F)c(Cl)c3)ncnc2cc1O[C@H]1CCOC1
REMARK SMILES IDX 7 1 8 2 9 3 6 5 5 6 4 7 2 8 1 9 3 10 10 11 11 12 28 13 12 14
REMARK SMILES IDX 27 15 13 16 26 17 23 18 25 19 24 20 29 21 30 22 31 23 34 24
REMARK SMILES IDX 32 25 33 26 14 27 15 29 16 30 22 31 17 32 20 33 18 34 21 35
REMARK SMILES IDX 19 36
REMARK H PARENT 9 4 14 28
ROOT
ATOM      1  C   UNL     1      -3.307  50.175 -24.384  1.00  0.00     0.248 C 
ATOM      2  O   UNL     1      -3.863  51.294 -24.411  1.00  0.00    -0.270 OA
ATOM      3  N   UNL     1      -1.999  49.969 -23.884  1.00  0.00    -0.319 N 
ATOM      4  H   UNL     1      -1.661  48.964 -23.926  1.00  0.00     0.170 HD
ENDROOT
BRANCH   1   5
ATOM      5  C   UNL     1      -4.090  49.047 -24.906  1.00  0.00     0.068 C 
BRANCH   5   6
ATOM      6  C   UNL     1      -3.692  48.444 -26.019  1.00  0.00    -0.006 C 
BRANCH   6   7
ATOM      7  C   UNL     1      -4.097  48.947 -27.357  1.00  0.00     0.111 C 
BRANCH   7   8
ATOM      8  N   UNL     1      -4.874  47.928 -28.047  1.00  0.00    -0.306 NA
ATOM      9  C   UNL     1      -6.107  47.777 -27.289  1.00  0.00     0.105 C 
ATOM     10  C   UNL     1      -5.184  48.301 -29.398  1.00  0.00     0.105 C 
ENDBRANCH   7   8
ENDBRANCH   6   7
ENDBRANCH   5   6
ENDBRANCH   1   5
BRANCH   3  11
ATOM     11  C   UNL     1      -1.146  50.957 -23.356  1.00  0.00     0.085 A 
ATOM     12  C   UNL     1      -1.026  51.301 -22.034  1.00  0.00     0.044 A 
ATOM     13  C   UNL     1      -0.345  51.650 -24.274  1.00  0.00     0.145 A 
ATOM     14  C   UNL     1      -0.169  52.281 -21.581  1.00  0.00     0.045 A 
ATOM     15  C   UNL     1       0.526  52.648 -23.789  1.00  0.00     0.077 A 
ATOM     16  C   UNL     1      -0.047  52.629 -20.247  1.00  0.00     0.141 A 
ATOM     17  C   UNL     1       0.619  52.964 -22.474  1.00  0.00     0.080 A 
ATOM     18  N   UNL     1       0.801  53.576 -19.923  1.00  0.00    -0.219 NA
ATOM     19  N   UNL     1       1.483  53.938 -22.084  1.00  0.00    -0.236 NA
ATOM     20  C   UNL     1       1.570  54.249 -20.757  1.00  0.00     0.224 A 
BRANCH  13  21
ATOM     21  O   UNL     1      -0.385  51.398 -25.540  1.00  0.00    -0.486 OA
BRANCH  21  22
ATOM     22  C   UNL     1      -0.426  51.145 -26.811  1.00  0.00     0.201 C 
ATOM     23  C   UNL     1      -1.561  51.851 -27.596  1.00  0.00     0.076 C 
ATOM     24  C   UNL     1       0.767  51.594 -27.650  1.00  0.00     0.205 C 
ATOM     25  C   UNL     1      -0.825  53.135 -27.967  1.00  0.00     0.164 C 
ATOM     26  O   UNL     1       0.356  52.611 -28.470  1.00  0.00    -0.377 OA
ENDBRANCH  21  22
ENDBRANCH  13  21
BRANCH  16  27
ATOM     27  N   UNL     1      -0.814  51.994 -19.255  1.00  0.00    -0.340 N 
ATOM     28  H   UNL     1      -1.862  52.126 -19.284  1.00  0.00     0.168 HD
BRANCH  27  29
ATOM     29  C   UNL     1      -0.350  51.180 -18.198  1.00  0.00     0.041 A 
ATOM     30  C   UNL     1      -0.776  49.841 -18.129  1.00  0.00     0.029 A 
ATOM     31  C   UNL     1       0.504  51.574 -17.205  1.00  0.00     0.049 A 
ATOM     32  C   UNL     1      -0.369  48.987 -17.145  1.00  0.00     0.043 A 
ATOM     33  C   UNL     1       0.927  50.706 -16.188  1.00  0.00     0.078 A 
ATOM     34  C   UNL     1       0.486  49.405 -16.160  1.00  0.00     0.141 A 
ATOM     35  Cl  UNL     1       2.021  51.273 -14.945  1.00  0.00    -0.081 Cl
ATOM     36  F   UNL     1       0.900  48.575 -15.176  1.00  0.00    -0.205 F 
ENDBRANCH  27  29
ENDBRANCH  16  27
ENDBRANCH   3  11
TORSDOF 9
ENDMDL
