MODEL 1
REMARK VINA RESULT:    -5.458      0.000      0.000
REMARK INTER + INTRA:          -7.218
REMARK INTER:                  -6.575
REMARK INTRA:                  -0.644
REMARK UNBOUND:                -0.644
REMARK SMILES CC(=O)Oc1ccccc1C(=O)O
REMARK SMILES IDX 5 1 6 2 7 3 8 4 9 5 10 6 4 7 2 8 1 9 3 10 11 11 12 12 13 13
REMARK H PARENT 13 14
ROOT
ATOM      1  C   UNL     1       0.089  51.404 -25.941  1.00  0.00     0.145 A 
ATOM      2  C   UNL     1       1.480  51.372 -25.826  1.00  0.00     0.048 A 
ATOM      3  C   UNL     1       2.287  51.627 -26.926  1.00  0.00     0.004 A 
ATOM      4  C   UNL     1       1.730  51.921 -28.173  1.00  0.00     0.001 A 
ATOM      5  C   UNL     1       0.351  51.949 -28.269  1.00  0.00     0.019 A 
ATOM      6  C   UNL     1      -0.455  51.695 -27.176  1.00  0.00     0.102 A 
ENDROOT
BRANCH   1   7
ATOM      7  O   UNL     1      -0.673  51.144 -24.817  1.00  0.00    -0.426 OA
BRANCH   7   8
ATOM      8  C   UNL     1      -0.968  52.127 -23.859  1.00  0.00     0.308 C 
ATOM      9  C   UNL     1      -0.070  52.307 -22.671  1.00  0.00     0.139 C 
ATOM     10  O   UNL     1      -1.970  52.871 -23.962  1.00  0.00    -0.252 OA
ENDBRANCH   7   8
ENDBRANCH   1   7
BRANCH   6  11
ATOM     11  C   UNL     1      -1.908  51.737 -27.329  1.00  0.00     0.339 C 
ATOM     12  O   UNL     1      -2.513  50.814 -27.923  1.00  0.00    -0.246 OA
BRANCH  11  13
ATOM     13  O   UNL     1      -2.644  52.791 -26.824  1.00  0.00    -0.478 OA
ATOM     14  H   UNL     1      -2.307  53.767 -26.862  1.00  0.00     0.297 HD
ENDBRANCH  11  13
ENDBRANCH   6  11
TORSDOF 4
ENDMDL
