MODEL 1
REMARK VINA RESULT:    -5.274      0.000      0.000
REMARK INTER + INTRA:          -5.274
REMARK INTER:                  -5.274
REMARK INTRA:                   0.000
REMARK UNBOUND:                 0.000
REMARK SMILES Cn1c(=O)c2c(ncn2C)n(C)c1=O
REMARK SMILES IDX 10 1 9 2 8 3 7 4 6 5 5 6 3 7 4 8 2 9 13 10 14 11 11 12 12 13
REMARK SMILES IDX 1 14
REMARK H PARENT
ROOT
ATOM      1  C   UNL     1       3.598  51.031 -27.249  1.00  0.00     0.151 C 
ATOM      2  N   UNL     1       2.172  51.177 -27.458  1.00  0.00    -0.328 N 
ATOM      3  C   UNL     1       1.515  51.430 -28.629  1.00  0.00     0.202 A 
ATOM      4  N   UNL     1       0.203  51.484 -28.363  1.00  0.00    -0.218 NA
ATOM      5  C   UNL     1       0.014  51.276 -27.073  1.00  0.00     0.167 A 
ATOM      6  C   UNL     1       1.246  51.079 -26.484  1.00  0.00     0.152 A 
ATOM      7  C   UNL     1       1.301  50.837 -25.111  1.00  0.00     0.282 A 
ATOM      8  O   UNL     1       2.414  50.653 -24.546  1.00  0.00    -0.267 OA
ATOM      9  N   UNL     1       0.165  50.799 -24.388  1.00  0.00    -0.261 N 
ATOM     10  C   UNL     1      -1.035  50.992 -24.970  1.00  0.00     0.332 A 
ATOM     11  O   UNL     1      -2.075  50.950 -24.271  1.00  0.00    -0.247 OA
ATOM     12  N   UNL     1      -1.102  51.226 -26.292  1.00  0.00    -0.279 N 
ATOM     13  C   UNL     1      -2.434  51.430 -26.881  1.00  0.00     0.157 C 
ATOM     14  C   UNL     1       0.278  50.542 -22.957  1.00  0.00     0.159 C 
ENDROOT
TORSDOF 0
ENDMDL
