MODEL 1
REMARK VINA RESULT:    -8.220      0.000      0.000
REMARK INTER + INTRA:         -14.896
REMARK INTER:                 -13.505
REMARK INTRA:                  -1.390
REMARK UNBOUND:                -1.390
REMARK SMILES C#Cc1cccc(Nc2ncnc3cc(OCCOC)c(OCCOC)cc23)c1
REMARK SMILES IDX 9 1 10 2 11 3 12 4 13 5 14 6 15 7 21 8 27 9 28 10 8 11 7 13
REMARK SMILES IDX 3 14 4 15 29 16 5 17 6 18 2 19 1 20 22 21 23 22 24 23 25 24
REMARK SMILES IDX 26 25 16 26 17 27 18 28 19 29 20 30
REMARK H PARENT 8 12
ROOT
ATOM      1  C   UNL     1      -0.957  15.077 -10.377  1.00  0.00     0.141 A 
ATOM      2  N   UNL     1      -1.674  14.089 -10.918  1.00  0.00    -0.219 NA
ATOM      3  C   UNL     1      -2.855  14.221 -11.516  1.00  0.00     0.224 A 
ATOM      4  N   UNL     1      -3.407  15.443 -11.602  1.00  0.00    -0.236 NA
ATOM      5  C   UNL     1      -2.751  16.506 -11.081  1.00  0.00     0.080 A 
ATOM      6  C   UNL     1      -3.331  17.750 -11.179  1.00  0.00     0.079 A 
ATOM      7  C   UNL     1      -2.731  18.885 -10.675  1.00  0.00     0.163 A 
ATOM      8  C   UNL     1      -1.470  18.746 -10.034  1.00  0.00     0.162 A 
ATOM      9  C   UNL     1      -0.932  17.478  -9.965  1.00  0.00     0.064 A 
ATOM     10  C   UNL     1      -1.536  16.353 -10.469  1.00  0.00     0.047 A 
ENDROOT
BRANCH   1  11
ATOM     11  N   UNL     1       0.294  14.880  -9.749  1.00  0.00    -0.340 N 
ATOM     12  H   UNL     1       1.155  15.062 -10.313  1.00  0.00     0.168 HD
BRANCH  11  13
ATOM     13  C   UNL     1       0.510  14.456  -8.420  1.00  0.00     0.041 A 
ATOM     14  C   UNL     1       1.454  12.770  -6.942  1.00  0.00     0.026 A 
ATOM     15  C   UNL     1       1.031  13.464  -5.836  1.00  0.00     0.017 A 
ATOM     16  C   UNL     1       1.201  13.255  -8.202  1.00  0.00     0.043 A 
ATOM     17  C   UNL     1       0.360  14.630  -6.006  1.00  0.00     0.003 A 
ATOM     18  C   UNL     1       0.104  15.118  -7.293  1.00  0.00     0.026 A 
BRANCH  14  19
ATOM     19  C   UNL     1       2.168  11.530  -6.771  1.00  0.00    -0.070 C 
ATOM     20  C   UNL     1       2.775  10.509  -6.630  1.00  0.00     0.010 C 
ENDBRANCH  14  19
ENDBRANCH  11  13
ENDBRANCH   1  11
BRANCH   8  21
ATOM     21  O   UNL     1      -0.931  19.892  -9.555  1.00  0.00    -0.487 OA
BRANCH  21  22
ATOM     22  C   UNL     1      -0.069  20.090  -8.507  1.00  0.00     0.258 C 
BRANCH  22  23
ATOM     23  C   UNL     1       1.225  20.694  -8.924  1.00  0.00     0.201 C 
BRANCH  23  24
ATOM     24  O   UNL     1       2.351  20.016  -8.455  1.00  0.00    -0.381 OA
ATOM     25  C   UNL     1       2.239  18.648  -8.472  1.00  0.00     0.195 C 
ENDBRANCH  23  24
ENDBRANCH  22  23
ENDBRANCH  21  22
ENDBRANCH   8  21
BRANCH   7  26
ATOM     26  O   UNL     1      -3.238  20.134 -10.736  1.00  0.00    -0.487 OA
BRANCH  26  27
ATOM     27  C   UNL     1      -4.270  20.783 -10.099  1.00  0.00     0.258 C 
BRANCH  27  28
ATOM     28  C   UNL     1      -4.250  20.824  -8.613  1.00  0.00     0.201 C 
BRANCH  28  29
ATOM     29  O   UNL     1      -4.148  22.123  -8.160  1.00  0.00    -0.381 OA
ATOM     30  C   UNL     1      -2.959  22.767  -8.424  1.00  0.00     0.195 C 
ENDBRANCH  28  29
ENDBRANCH  27  28
ENDBRANCH  26  27
ENDBRANCH   7  26
TORSDOF 11
ENDMDL
