MODEL 1
REMARK VINA RESULT:    -7.464      0.000      0.000
REMARK INTER + INTRA:         -13.307
REMARK INTER:                 -12.264
REMARK INTRA:                  -1.043
REMARK UNBOUND:                -1.043
REMARK SMILES C#Cc1cccc(Nc2ncnc3cc(OCCOC)c(OCCOC)cc23)c1
REMARK SMILES IDX 9 1 10 2 11 3 12 4 13 5 14 6 15 7 21 8 27 9 28 10 8 11 7 13
REMARK SMILES IDX 3 14 4 15 29 16 5 17 6 18 2 19 1 20 22 21 23 22 24 23 25 24
REMARK SMILES IDX 26 25 16 26 17 27 18 28 19 29 20 30
REMARK H PARENT 8 12
ROOT
ATOM      1  C   UNL     1       0.089  52.946 -20.725  1.00  0.00     0.141 A 
ATOM      2  N   UNL     1       0.926  53.987 -20.663  1.00  0.00    -0.219 NA
ATOM      3  C   UNL     1       1.560  54.565 -21.681  1.00  0.00     0.224 A 
ATOM      4  N   UNL     1       1.340  54.053 -22.912  1.00  0.00    -0.236 NA
ATOM      5  C   UNL     1       0.507  52.996 -23.081  1.00  0.00     0.080 A 
ATOM      6  C   UNL     1       0.317  52.512 -24.357  1.00  0.00     0.079 A 
ATOM      7  C   UNL     1      -0.508  51.447 -24.628  1.00  0.00     0.163 A 
ATOM      8  C   UNL     1      -1.145  50.885 -23.501  1.00  0.00     0.162 A 
ATOM      9  C   UNL     1      -0.955  51.366 -22.238  1.00  0.00     0.064 A 
ATOM     10  C   UNL     1      -0.129  52.426 -22.007  1.00  0.00     0.047 A 
ENDROOT
BRANCH   1  11
ATOM     11  N   UNL     1      -0.550  52.381 -19.605  1.00  0.00    -0.340 N 
ATOM     12  H   UNL     1      -1.587  52.243 -19.645  1.00  0.00     0.168 HD
BRANCH  11  13
ATOM     13  C   UNL     1       0.068  51.966 -18.400  1.00  0.00     0.041 A 
ATOM     14  C   UNL     1       1.810  51.955 -16.730  1.00  0.00     0.026 A 
ATOM     15  C   UNL     1       1.150  51.028 -15.975  1.00  0.00     0.017 A 
ATOM     16  C   UNL     1       1.271  52.420 -17.934  1.00  0.00     0.043 A 
ATOM     17  C   UNL     1      -0.052  50.557 -16.418  1.00  0.00     0.003 A 
ATOM     18  C   UNL     1      -0.578  51.016 -17.599  1.00  0.00     0.026 A 
BRANCH  14  19
ATOM     19  C   UNL     1       3.063  52.449 -16.276  1.00  0.00    -0.070 C 
ATOM     20  C   UNL     1       4.142  52.881 -15.903  1.00  0.00     0.010 C 
ENDBRANCH  14  19
ENDBRANCH  11  13
ENDBRANCH   1  11
BRANCH   8  21
ATOM     21  O   UNL     1      -1.992  49.807 -23.682  1.00  0.00    -0.487 OA
BRANCH  21  22
ATOM     22  C   UNL     1      -3.380  49.876 -23.686  1.00  0.00     0.258 C 
BRANCH  22  23
ATOM     23  C   UNL     1      -3.988  49.448 -25.021  1.00  0.00     0.201 C 
BRANCH  23  24
ATOM     24  O   UNL     1      -3.146  48.576 -25.686  1.00  0.00    -0.381 OA
ATOM     25  C   UNL     1      -3.546  48.442 -27.015  1.00  0.00     0.195 C 
ENDBRANCH  23  24
ENDBRANCH  22  23
ENDBRANCH  21  22
ENDBRANCH   8  21
BRANCH   7  26
ATOM     26  O   UNL     1      -0.783  50.884 -25.808  1.00  0.00    -0.487 OA
BRANCH  26  27
ATOM     27  C   UNL     1      -0.896  51.235 -27.118  1.00  0.00     0.258 C 
BRANCH  27  28
ATOM     28  C   UNL     1       0.340  51.571 -27.888  1.00  0.00     0.201 C 
BRANCH  28  29
ATOM     29  O   UNL     1       0.306  52.788 -28.486  1.00  0.00    -0.381 OA
ATOM     30  C   UNL     1      -0.458  53.743 -27.851  1.00  0.00     0.195 C 
ENDBRANCH  28  29
ENDBRANCH  27  28
ENDBRANCH  26  27
ENDBRANCH   7  26
TORSDOF 11
ENDMDL
