MODEL 1
REMARK VINA RESULT:    -7.208      0.000      0.000
REMARK INTER + INTRA:         -13.215
REMARK INTER:                 -11.843
REMARK INTRA:                  -1.372
REMARK UNBOUND:                -1.372
REMARK SMILES C#Cc1cccc(Nc2ncnc3cc(OCCOC)c(OCCOC)cc23)c1
REMARK SMILES IDX 9 1 10 2 11 3 12 4 13 5 14 6 15 7 21 8 27 9 28 10 8 11 7 13
REMARK SMILES IDX 3 14 4 15 29 16 5 17 6 18 2 19 1 20 22 21 23 22 24 23 25 24
REMARK SMILES IDX 26 25 16 26 17 27 18 28 19 29 20 30
REMARK H PARENT 8 12
ROOT
ATOM      1  C   UNL     1      -0.894  49.770 -23.743  1.00  0.00     0.141 A 
ATOM      2  N   UNL     1      -1.788  49.055 -24.431  1.00  0.00    -0.219 NA
ATOM      3  C   UNL     1      -2.459  48.000 -23.975  1.00  0.00     0.224 A 
ATOM      4  N   UNL     1      -2.242  47.588 -22.715  1.00  0.00    -0.236 NA
ATOM      5  C   UNL     1      -1.352  48.252 -21.942  1.00  0.00     0.080 A 
ATOM      6  C   UNL     1      -1.144  47.816 -20.654  1.00  0.00     0.079 A 
ATOM      7  C   UNL     1      -0.256  48.435 -19.800  1.00  0.00     0.163 A 
ATOM      8  C   UNL     1       0.463  49.562 -20.285  1.00  0.00     0.162 A 
ATOM      9  C   UNL     1       0.216  49.959 -21.582  1.00  0.00     0.064 A 
ATOM     10  C   UNL     1      -0.671  49.337 -22.426  1.00  0.00     0.047 A 
ENDROOT
BRANCH   1  11
ATOM     11  N   UNL     1      -0.207  50.883 -24.278  1.00  0.00    -0.340 N 
ATOM     12  H   UNL     1      -0.529  51.836 -23.996  1.00  0.00     0.168 HD
BRANCH  11  13
ATOM     13  C   UNL     1       0.888  50.846 -25.169  1.00  0.00     0.041 A 
ATOM     14  C   UNL     1       1.663  51.077 -27.463  1.00  0.00     0.026 A 
ATOM     15  C   UNL     1       2.955  50.815 -27.082  1.00  0.00     0.017 A 
ATOM     16  C   UNL     1       0.655  51.093 -26.529  1.00  0.00     0.043 A 
ATOM     17  C   UNL     1       3.220  50.571 -25.774  1.00  0.00     0.003 A 
ATOM     18  C   UNL     1       2.188  50.587 -24.828  1.00  0.00     0.026 A 
BRANCH  14  19
ATOM     19  C   UNL     1       1.372  51.338 -28.850  1.00  0.00    -0.070 C 
ATOM     20  C   UNL     1       1.133  51.538 -30.005  1.00  0.00     0.010 C 
ENDBRANCH  14  19
ENDBRANCH  11  13
ENDBRANCH   1  11
BRANCH   8  21
ATOM     21  O   UNL     1       1.324  50.125 -19.406  1.00  0.00    -0.487 OA
BRANCH  21  22
ATOM     22  C   UNL     1       1.318  51.377 -18.845  1.00  0.00     0.258 C 
BRANCH  22  23
ATOM     23  C   UNL     1       2.115  52.365 -19.621  1.00  0.00     0.201 C 
BRANCH  23  24
ATOM     24  O   UNL     1       1.351  53.222 -20.413  1.00  0.00    -0.381 OA
ATOM     25  C   UNL     1       1.791  53.344 -21.708  1.00  0.00     0.195 C 
ENDBRANCH  23  24
ENDBRANCH  22  23
ENDBRANCH  21  22
ENDBRANCH   8  21
BRANCH   7  26
ATOM     26  O   UNL     1      -0.002  48.065 -18.527  1.00  0.00    -0.487 OA
BRANCH  26  27
ATOM     27  C   UNL     1      -0.591  48.336 -17.314  1.00  0.00     0.258 C 
BRANCH  27  28
ATOM     28  C   UNL     1      -1.524  49.493 -17.240  1.00  0.00     0.201 C 
BRANCH  28  29
ATOM     29  O   UNL     1      -2.802  49.073 -16.935  1.00  0.00    -0.381 OA
ATOM     30  C   UNL     1      -3.233  49.322 -15.651  1.00  0.00     0.195 C 
ENDBRANCH  28  29
ENDBRANCH  27  28
ENDBRANCH  26  27
ENDBRANCH   7  26
TORSDOF 11
ENDMDL
