MODEL 1
REMARK VINA RESULT:    -8.918      0.000      0.000
REMARK INTER + INTRA:         -14.122
REMARK INTER:                 -13.089
REMARK INTRA:                  -1.032
REMARK UNBOUND:                -1.032
REMARK SMILES COc1cc2ncnc(Nc3ccc(F)c(Cl)c3)c2cc1OCCCN1CCOCC1
REMARK SMILES IDX 22 1 21 2 3 3 4 4 5 5 20 6 6 7 19 8 7 9 9 10 8 11 2 12 1 13
REMARK SMILES IDX 10 14 11 16 12 17 18 18 13 19 16 20 14 21 17 22 15 23 23 24
REMARK SMILES IDX 24 25 25 26 26 27 27 28 31 29 28 30 30 31 29 32
REMARK H PARENT 10 15
ROOT
ATOM      1  O   UNL     1      36.667 -27.902  45.865  1.00  0.00    -0.490 OA
ENDROOT
BRANCH   1   2
ATOM      2  C   UNL     1      35.660 -27.273  45.133  1.00  0.00     0.162 A 
ATOM      3  C   UNL     1      35.700 -27.344  43.756  1.00  0.00     0.162 A 
ATOM      4  C   UNL     1      34.695 -26.716  43.050  1.00  0.00     0.079 A 
ATOM      5  C   UNL     1      33.687 -26.040  43.700  1.00  0.00     0.080 A 
ATOM      6  C   UNL     1      34.636 -26.587  45.772  1.00  0.00     0.064 A 
ATOM      7  N   UNL     1      32.727 -25.441  42.960  1.00  0.00    -0.236 NA
ATOM      8  C   UNL     1      33.628 -25.955  45.082  1.00  0.00     0.047 A 
ATOM      9  C   UNL     1      31.719 -24.765  43.584  1.00  0.00     0.224 A 
ATOM     10  C   UNL     1      32.595 -25.263  45.726  1.00  0.00     0.141 A 
ATOM     11  N   UNL     1      31.691 -24.703  44.915  1.00  0.00    -0.219 NA
BRANCH   3  12
ATOM     12  O   UNL     1      36.733 -28.036  43.139  1.00  0.00    -0.493 OA
ATOM     13  C   UNL     1      36.414 -29.218  42.393  1.00  0.00     0.278 C 
ENDBRANCH   3  12
BRANCH  10  14
ATOM     14  N   UNL     1      32.557 -25.193  47.140  1.00  0.00    -0.340 N 
ATOM     15  H   UNL     1      33.408 -25.491  47.671  1.00  0.00     0.168 HD
BRANCH  14  16
ATOM     16  C   UNL     1      31.468 -24.753  47.923  1.00  0.00     0.041 A 
ATOM     17  C   UNL     1      30.272 -25.488  47.887  1.00  0.00     0.029 A 
ATOM     18  C   UNL     1      31.463 -23.655  48.735  1.00  0.00     0.049 A 
ATOM     19  C   UNL     1      29.165 -25.136  48.613  1.00  0.00     0.043 A 
ATOM     20  C   UNL     1      30.344 -23.295  49.472  1.00  0.00     0.078 A 
ATOM     21  C   UNL     1      29.181 -24.027  49.425  1.00  0.00     0.141 A 
ATOM     22  Cl  UNL     1      30.388 -21.889  50.490  1.00  0.00    -0.081 Cl
ATOM     23  F   UNL     1      28.115 -23.640  50.160  1.00  0.00    -0.205 F 
ENDBRANCH  14  16
ENDBRANCH  10  14
ENDBRANCH   1   2
BRANCH   1  24
ATOM     24  C   UNL     1      36.620 -29.277  46.191  1.00  0.00     0.231 C 
BRANCH  24  25
ATOM     25  C   UNL     1      36.990 -29.416  47.640  1.00  0.00     0.057 C 
BRANCH  25  26
ATOM     26  C   UNL     1      37.751 -28.224  48.160  1.00  0.00     0.088 C 
BRANCH  26  27
ATOM     27  N   UNL     1      36.898 -27.400  48.966  1.00  0.00    -0.299 NA
ATOM     28  C   UNL     1      36.756 -28.006  50.277  1.00  0.00     0.113 C 
ATOM     29  C   UNL     1      37.287 -26.029  49.067  1.00  0.00     0.113 C 
ATOM     30  C   UNL     1      37.280 -27.082  51.363  1.00  0.00     0.175 C 
ATOM     31  C   UNL     1      38.599 -25.949  49.816  1.00  0.00     0.175 C 
ATOM     32  O   UNL     1      38.540 -26.589  51.031  1.00  0.00    -0.379 OA
ENDBRANCH  26  27
ENDBRANCH  25  26
ENDBRANCH  24  25
ENDBRANCH   1  24
TORSDOF 8
ENDMDL
