MODEL 1
REMARK VINA RESULT:    -9.264      0.000      0.000
REMARK INTER + INTRA:         -14.579
REMARK INTER:                 -13.597
REMARK INTRA:                  -0.982
REMARK UNBOUND:                -0.982
REMARK SMILES COc1cc2ncnc(Nc3ccc(F)c(Cl)c3)c2cc1OCCCN1CCOCC1
REMARK SMILES IDX 22 1 21 2 3 3 4 4 5 5 20 6 6 7 19 8 7 9 9 10 8 11 2 12 1 13
REMARK SMILES IDX 10 14 11 16 12 17 18 18 13 19 16 20 14 21 17 22 15 23 23 24
REMARK SMILES IDX 24 25 25 26 26 27 27 28 31 29 28 30 30 31 29 32
REMARK H PARENT 10 15
ROOT
ATOM      1  O   UNL     1      -3.271  19.236 -10.797  1.00  0.00    -0.490 OA
ENDROOT
BRANCH   1   2
ATOM      2  C   UNL     1      -1.942  19.304 -10.381  1.00  0.00     0.162 A 
ATOM      3  C   UNL     1      -1.202  20.421 -10.710  1.00  0.00     0.162 A 
ATOM      4  C   UNL     1       0.110  20.472 -10.289  1.00  0.00     0.079 A 
ATOM      5  C   UNL     1       0.664  19.439  -9.565  1.00  0.00     0.080 A 
ATOM      6  C   UNL     1      -1.368  18.273  -9.650  1.00  0.00     0.064 A 
ATOM      7  N   UNL     1       1.955  19.538  -9.178  1.00  0.00    -0.236 NA
ATOM      8  C   UNL     1      -0.060  18.308  -9.224  1.00  0.00     0.047 A 
ATOM      9  C   UNL     1       2.522  18.525  -8.460  1.00  0.00     0.224 A 
ATOM     10  C   UNL     1       0.518  17.267  -8.486  1.00  0.00     0.141 A 
ATOM     11  N   UNL     1       1.798  17.452  -8.148  1.00  0.00    -0.219 NA
BRANCH   3  12
ATOM     12  O   UNL     1      -1.796  21.441 -11.441  1.00  0.00    -0.493 OA
ATOM     13  C   UNL     1      -2.174  22.642 -10.756  1.00  0.00     0.278 C 
ENDBRANCH   3  12
BRANCH  10  14
ATOM     14  N   UNL     1      -0.244  16.122  -8.150  1.00  0.00    -0.340 N 
ATOM     15  H   UNL     1      -1.285  16.174  -8.256  1.00  0.00     0.168 HD
BRANCH  14  16
ATOM     16  C   UNL     1       0.263  14.893  -7.676  1.00  0.00     0.041 A 
ATOM     17  C   UNL     1       0.475  14.739  -6.296  1.00  0.00     0.029 A 
ATOM     18  C   UNL     1       0.576  13.810  -8.446  1.00  0.00     0.049 A 
ATOM     19  C   UNL     1       0.963  13.584  -5.746  1.00  0.00     0.043 A 
ATOM     20  C   UNL     1       1.071  12.637  -7.894  1.00  0.00     0.078 A 
ATOM     21  C   UNL     1       1.272  12.504  -6.540  1.00  0.00     0.141 A 
ATOM     22  Cl  UNL     1       1.455  11.288  -8.917  1.00  0.00    -0.081 Cl
ATOM     23  F   UNL     1       1.755  11.344  -6.044  1.00  0.00    -0.205 F 
ENDBRANCH  14  16
ENDBRANCH  10  14
ENDBRANCH   1   2
BRANCH   1  24
ATOM     24  C   UNL     1      -3.769  18.160 -11.567  1.00  0.00     0.231 C 
BRANCH  24  25
ATOM     25  C   UNL     1      -3.763  18.585 -13.006  1.00  0.00     0.057 C 
BRANCH  25  26
ATOM     26  C   UNL     1      -4.963  19.421 -13.368  1.00  0.00     0.088 C 
BRANCH  26  27
ATOM     27  N   UNL     1      -5.416  19.101 -14.689  1.00  0.00    -0.299 NA
ATOM     28  C   UNL     1      -6.017  17.780 -14.676  1.00  0.00     0.113 C 
ATOM     29  C   UNL     1      -6.286  20.061 -15.290  1.00  0.00     0.113 C 
ATOM     30  C   UNL     1      -7.477  17.843 -15.091  1.00  0.00     0.175 C 
ATOM     31  C   UNL     1      -7.584  20.095 -14.513  1.00  0.00     0.175 C 
ATOM     32  O   UNL     1      -8.148  18.847 -14.398  1.00  0.00    -0.379 OA
ENDBRANCH  26  27
ENDBRANCH  25  26
ENDBRANCH  24  25
ENDBRANCH   1  24
TORSDOF 8
ENDMDL
