MODEL 1
REMARK VINA RESULT:    -7.690      0.000      0.000
REMARK INTER + INTRA:         -13.138
REMARK INTER:                 -11.287
REMARK INTRA:                  -1.851
REMARK UNBOUND:                -1.851
REMARK SMILES COc1cc2ncnc(Nc3ccc(F)c(Cl)c3)c2cc1OCCCN1CCOCC1
REMARK SMILES IDX 22 1 21 2 3 3 4 4 5 5 20 6 6 7 19 8 7 9 9 10 8 11 2 12 1 13
REMARK SMILES IDX 10 14 11 16 12 17 18 18 13 19 16 20 14 21 17 22 15 23 23 24
REMARK SMILES IDX 24 25 25 26 26 27 27 28 31 29 28 30 30 31 29 32
REMARK H PARENT 10 15
ROOT
ATOM      1  O   UNL     1      -1.116  49.479 -18.947  1.00  0.00    -0.490 OA
ENDROOT
BRANCH   1   2
ATOM      2  C   UNL     1      -0.528  50.593 -19.401  1.00  0.00     0.162 A 
ATOM      3  C   UNL     1       0.001  51.465 -18.408  1.00  0.00     0.162 A 
ATOM      4  C   UNL     1       0.631  52.649 -18.817  1.00  0.00     0.079 A 
ATOM      5  C   UNL     1       0.757  53.000 -20.135  1.00  0.00     0.080 A 
ATOM      6  C   UNL     1      -0.377  50.991 -20.713  1.00  0.00     0.064 A 
ATOM      7  N   UNL     1       1.374  54.160 -20.419  1.00  0.00    -0.236 NA
ATOM      8  C   UNL     1       0.243  52.150 -21.080  1.00  0.00     0.047 A 
ATOM      9  C   UNL     1       1.506  54.538 -21.725  1.00  0.00     0.224 A 
ATOM     10  C   UNL     1       0.381  52.540 -22.409  1.00  0.00     0.141 A 
ATOM     11  N   UNL     1       1.001  53.701 -22.629  1.00  0.00    -0.219 NA
BRANCH   3  12
ATOM     12  O   UNL     1      -0.100  51.166 -17.165  1.00  0.00    -0.493 OA
ATOM     13  C   UNL     1      -0.210  50.920 -15.884  1.00  0.00     0.278 C 
ENDBRANCH   3  12
BRANCH  10  14
ATOM     14  N   UNL     1      -0.084  51.730 -23.475  1.00  0.00    -0.340 N 
ATOM     15  H   UNL     1      -0.499  50.790 -23.261  1.00  0.00     0.168 HD
BRANCH  14  16
ATOM     16  C   UNL     1      -0.045  52.075 -24.848  1.00  0.00     0.041 A 
ATOM     17  C   UNL     1      -1.052  52.717 -25.528  1.00  0.00     0.029 A 
ATOM     18  C   UNL     1       1.094  51.769 -25.588  1.00  0.00     0.049 A 
ATOM     19  C   UNL     1      -0.931  53.040 -26.888  1.00  0.00     0.043 A 
ATOM     20  C   UNL     1       1.240  52.072 -26.917  1.00  0.00     0.078 A 
ATOM     21  C   UNL     1       0.208  52.717 -27.565  1.00  0.00     0.141 A 
ATOM     22  Cl  UNL     1       2.677  51.681 -27.835  1.00  0.00    -0.081 Cl
ATOM     23  F   UNL     1       0.306  53.037 -28.874  1.00  0.00    -0.205 F 
ENDBRANCH  14  16
ENDBRANCH  10  14
ENDBRANCH   1   2
BRANCH   1  24
ATOM     24  C   UNL     1      -1.460  48.259 -19.469  1.00  0.00     0.231 C 
BRANCH  24  25
ATOM     25  C   UNL     1      -2.593  48.207 -20.445  1.00  0.00     0.057 C 
BRANCH  25  26
ATOM     26  C   UNL     1      -3.735  49.120 -20.038  1.00  0.00     0.088 C 
BRANCH  26  27
ATOM     27  N   UNL     1      -4.269  49.869 -21.130  1.00  0.00    -0.299 NA
ATOM     28  C   UNL     1      -4.044  51.258 -21.133  1.00  0.00     0.113 C 
ATOM     29  C   UNL     1      -4.135  49.210 -22.370  1.00  0.00     0.113 C 
ATOM     30  C   UNL     1      -3.725  51.925 -22.421  1.00  0.00     0.175 C 
ATOM     31  C   UNL     1      -3.986  50.057 -23.586  1.00  0.00     0.175 C 
ATOM     32  O   UNL     1      -3.038  51.060 -23.268  1.00  0.00    -0.379 OA
ENDBRANCH  26  27
ENDBRANCH  25  26
ENDBRANCH  24  25
ENDBRANCH   1  24
TORSDOF 8
ENDMDL
