MODEL 1
REMARK VINA RESULT:    -8.453      0.000      0.000
REMARK INTER + INTRA:         -14.296
REMARK INTER:                 -12.406
REMARK INTRA:                  -1.890
REMARK UNBOUND:                -1.890
REMARK SMILES COc1cc2ncnc(Nc3ccc(F)c(Cl)c3)c2cc1OCCCN1CCOCC1
REMARK SMILES IDX 22 1 21 2 3 3 4 4 5 5 20 6 6 7 19 8 7 9 9 10 8 11 2 12 1 13
REMARK SMILES IDX 10 14 11 16 12 17 18 18 13 19 16 20 14 21 17 22 15 23 23 24
REMARK SMILES IDX 24 25 25 26 26 27 27 28 31 29 28 30 30 31 29 32
REMARK H PARENT 10 15
ROOT
ATOM      1  O   UNL     1      -1.239  47.566 -21.797  1.00  0.00    -0.490 OA
ENDROOT
BRANCH   1   2
ATOM      2  C   UNL     1      -0.448  48.585 -21.267  1.00  0.00     0.162 A 
ATOM      3  C   UNL     1       0.066  48.431 -19.996  1.00  0.00     0.162 A 
ATOM      4  C   UNL     1       0.846  49.448 -19.489  1.00  0.00     0.079 A 
ATOM      5  C   UNL     1       1.102  50.582 -20.227  1.00  0.00     0.080 A 
ATOM      6  C   UNL     1      -0.179  49.734 -21.998  1.00  0.00     0.064 A 
ATOM      7  N   UNL     1       1.873  51.550 -19.683  1.00  0.00    -0.236 NA
ATOM      8  C   UNL     1       0.596  50.759 -21.505  1.00  0.00     0.047 A 
ATOM      9  C   UNL     1       2.138  52.682 -20.398  1.00  0.00     0.224 A 
ATOM     10  C   UNL     1       0.867  51.917 -22.243  1.00  0.00     0.141 A 
ATOM     11  N   UNL     1       1.637  52.820 -21.624  1.00  0.00    -0.219 NA
BRANCH   3  12
ATOM     12  O   UNL     1      -0.215  47.273 -19.283  1.00  0.00    -0.493 OA
ATOM     13  C   UNL     1      -0.871  47.394 -18.015  1.00  0.00     0.278 C 
ENDBRANCH   3  12
BRANCH  10  14
ATOM     14  N   UNL     1       0.339  52.073 -23.547  1.00  0.00    -0.340 N 
ATOM     15  H   UNL     1      -0.611  52.502 -23.646  1.00  0.00     0.168 HD
BRANCH  14  16
ATOM     16  C   UNL     1       0.973  51.703 -24.753  1.00  0.00     0.041 A 
ATOM     17  C   UNL     1       2.199  51.021 -24.687  1.00  0.00     0.029 A 
ATOM     18  C   UNL     1       0.501  51.949 -26.010  1.00  0.00     0.049 A 
ATOM     19  C   UNL     1       2.886  50.623 -25.803  1.00  0.00     0.043 A 
ATOM     20  C   UNL     1       1.193  51.547 -27.144  1.00  0.00     0.078 A 
ATOM     21  C   UNL     1       2.392  50.880 -27.060  1.00  0.00     0.141 A 
ATOM     22  Cl  UNL     1       0.550  51.885 -28.721  1.00  0.00    -0.081 Cl
ATOM     23  F   UNL     1       3.033  50.507 -28.190  1.00  0.00    -0.205 F 
ENDBRANCH  14  16
ENDBRANCH  10  14
ENDBRANCH   1   2
BRANCH   1  24
ATOM     24  C   UNL     1      -1.733  47.603 -23.121  1.00  0.00     0.231 C 
BRANCH  24  25
ATOM     25  C   UNL     1      -3.199  47.919 -23.054  1.00  0.00     0.057 C 
BRANCH  25  26
ATOM     26  C   UNL     1      -3.740  48.440 -24.360  1.00  0.00     0.088 C 
BRANCH  26  27
ATOM     27  N   UNL     1      -4.554  49.598 -24.138  1.00  0.00    -0.299 NA
ATOM     28  C   UNL     1      -4.469  49.974 -22.738  1.00  0.00     0.113 C 
ATOM     29  C   UNL     1      -4.285  50.711 -24.991  1.00  0.00     0.113 C 
ATOM     30  C   UNL     1      -3.897  51.373 -22.585  1.00  0.00     0.175 C 
ATOM     31  C   UNL     1      -2.900  51.237 -24.684  1.00  0.00     0.175 C 
ATOM     32  O   UNL     1      -2.742  51.525 -23.349  1.00  0.00    -0.379 OA
ENDBRANCH  26  27
ENDBRANCH  25  26
ENDBRANCH  24  25
ENDBRANCH   1  24
TORSDOF 8
ENDMDL
