MODEL 1
REMARK VINA RESULT:    -8.605      0.000      0.000
REMARK INTER + INTRA:         -13.954
REMARK INTER:                 -12.629
REMARK INTRA:                  -1.325
REMARK UNBOUND:                -1.325
REMARK SMILES COc1cc2ncnc(Nc3ccc(F)c(Cl)c3)c2cc1OCCCN1CCOCC1
REMARK SMILES IDX 22 1 21 2 3 3 4 4 5 5 20 6 6 7 19 8 7 9 9 10 8 11 2 12 1 13
REMARK SMILES IDX 10 14 11 16 12 17 18 18 13 19 16 20 14 21 17 22 15 23 23 24
REMARK SMILES IDX 24 25 25 26 26 27 27 28 31 29 28 30 30 31 29 32
REMARK H PARENT 10 15
ROOT
ATOM      1  O   UNL     1      51.155 358.601  28.093  1.00  0.00    -0.490 OA
ENDROOT
BRANCH   1   2
ATOM      2  C   UNL     1      51.165 358.809  29.471  1.00  0.00     0.162 A 
ATOM      3  C   UNL     1      52.245 358.358  30.201  1.00  0.00     0.162 A 
ATOM      4  C   UNL     1      52.238 358.572  31.563  1.00  0.00     0.079 A 
ATOM      5  C   UNL     1      51.184 359.216  32.174  1.00  0.00     0.080 A 
ATOM      6  C   UNL     1      50.113 359.456  30.103  1.00  0.00     0.064 A 
ATOM      7  N   UNL     1      51.226 359.401  33.513  1.00  0.00    -0.236 NA
ATOM      8  C   UNL     1      50.089 359.677  31.461  1.00  0.00     0.047 A 
ATOM      9  C   UNL     1      50.192 360.036  34.137  1.00  0.00     0.224 A 
ATOM     10  C   UNL     1      49.027 360.330  32.098  1.00  0.00     0.141 A 
ATOM     11  N   UNL     1      49.154 360.468  33.423  1.00  0.00    -0.219 NA
BRANCH   3  12
ATOM     12  O   UNL     1      53.287 357.713  29.549  1.00  0.00    -0.493 OA
ATOM     13  C   UNL     1      54.549 357.602  30.220  1.00  0.00     0.278 C 
ENDBRANCH   3  12
BRANCH  10  14
ATOM     14  N   UNL     1      47.920 360.793  31.346  1.00  0.00    -0.340 N 
ATOM     15  H   UNL     1      47.587 360.205  30.547  1.00  0.00     0.168 HD
BRANCH  14  16
ATOM     16  C   UNL     1      47.204 361.990  31.568  1.00  0.00     0.041 A 
ATOM     17  C   UNL     1      45.913 362.111  31.028  1.00  0.00     0.029 A 
ATOM     18  C   UNL     1      47.653 363.069  32.273  1.00  0.00     0.049 A 
ATOM     19  C   UNL     1      45.144 363.232  31.192  1.00  0.00     0.043 A 
ATOM     20  C   UNL     1      46.878 364.207  32.441  1.00  0.00     0.078 A 
ATOM     21  C   UNL     1      45.615 364.309  31.906  1.00  0.00     0.141 A 
ATOM     22  Cl  UNL     1      47.496 365.554  33.347  1.00  0.00    -0.081 Cl
ATOM     23  F   UNL     1      44.895 365.436  32.094  1.00  0.00    -0.205 F 
ENDBRANCH  14  16
ENDBRANCH  10  14
ENDBRANCH   1   2
BRANCH   1  24
ATOM     24  C   UNL     1      50.065 357.999  27.425  1.00  0.00     0.231 C 
BRANCH  24  25
ATOM     25  C   UNL     1      49.909 358.678  26.096  1.00  0.00     0.057 C 
BRANCH  25  26
ATOM     26  C   UNL     1      49.320 360.059  26.217  1.00  0.00     0.088 C 
BRANCH  26  27
ATOM     27  N   UNL     1      47.936 359.982  26.581  1.00  0.00    -0.299 NA
ATOM     28  C   UNL     1      47.693 360.873  27.702  1.00  0.00     0.113 C 
ATOM     29  C   UNL     1      47.008 360.216  25.522  1.00  0.00     0.113 C 
ATOM     30  C   UNL     1      46.677 361.942  27.336  1.00  0.00     0.175 C 
ATOM     31  C   UNL     1      47.134 361.655  25.072  1.00  0.00     0.175 C 
ATOM     32  O   UNL     1      46.998 362.536  26.118  1.00  0.00    -0.379 OA
ENDBRANCH  26  27
ENDBRANCH  25  26
ENDBRANCH  24  25
ENDBRANCH   1  24
TORSDOF 8
ENDMDL
