MODEL 1
REMARK VINA RESULT:    -6.124      0.000      0.000
REMARK INTER + INTRA:          -8.199
REMARK INTER:                  -7.735
REMARK INTRA:                  -0.463
REMARK UNBOUND:                -0.463
REMARK SMILES CC(C)Cc1ccc(C(C)C(=O)O)cc1
REMARK SMILES IDX 5 1 6 2 7 3 8 4 14 5 15 6 4 7 2 8 1 9 3 10 9 11 10 12 11 13
REMARK SMILES IDX 12 14 13 15
REMARK H PARENT 13 16
ROOT
ATOM      1  C   UNL     1       0.840  51.506 -24.328  1.00  0.00    -0.048 A 
ATOM      2  C   UNL     1       1.359  52.433 -23.455  1.00  0.00     0.004 A 
ATOM      3  C   UNL     1       1.246  52.299 -22.085  1.00  0.00     0.005 A 
ATOM      4  C   UNL     1       0.584  51.186 -21.561  1.00  0.00    -0.034 A 
ATOM      5  C   UNL     1       0.063  50.254 -22.439  1.00  0.00     0.005 A 
ATOM      6  C   UNL     1       0.192  50.417 -23.792  1.00  0.00     0.004 A 
ENDROOT
BRANCH   1   7
ATOM      7  C   UNL     1       1.016  51.744 -25.773  1.00  0.00     0.038 C 
BRANCH   7   8
ATOM      8  C   UNL     1       1.826  50.631 -26.445  1.00  0.00    -0.013 C 
ATOM      9  C   UNL     1       1.989  51.026 -27.904  1.00  0.00     0.008 C 
ATOM     10  C   UNL     1       3.181  50.506 -25.826  1.00  0.00     0.008 C 
ENDBRANCH   7   8
ENDBRANCH   1   7
BRANCH   4  11
ATOM     11  C   UNL     1       0.412  50.953 -20.123  1.00  0.00     0.126 C 
ATOM     12  C   UNL     1       0.862  49.567 -19.697  1.00  0.00     0.025 C 
BRANCH  11  13
ATOM     13  C   UNL     1       1.078  51.952 -19.268  1.00  0.00     0.310 C 
ATOM     14  O   UNL     1       2.238  51.829 -18.809  1.00  0.00    -0.252 OA
BRANCH  13  15
ATOM     15  O   UNL     1       0.368  53.103 -18.952  1.00  0.00    -0.481 OA
ATOM     16  H   UNL     1      -0.192  53.224 -18.119  1.00  0.00     0.296 HD
ENDBRANCH  13  15
ENDBRANCH  11  13
ENDBRANCH   4  11
TORSDOF 5
ENDMDL
