MODEL 1
REMARK VINA RESULT:    -6.198      0.000      0.000
REMARK INTER + INTRA:          -8.382
REMARK INTER:                  -7.829
REMARK INTRA:                  -0.554
REMARK UNBOUND:                -0.554
REMARK SMILES CC(C)Cc1ccc(C(C)C(=O)O)cc1
REMARK SMILES IDX 5 1 6 2 7 3 8 4 14 5 15 6 4 7 2 8 1 9 3 10 9 11 10 12 11 13
REMARK SMILES IDX 12 14 13 15
REMARK H PARENT 13 16
ROOT
ATOM      1  C   UNL     1      -0.817  51.490 -22.645  1.00  0.00    -0.048 A 
ATOM      2  C   UNL     1       0.237  52.399 -22.718  1.00  0.00     0.004 A 
ATOM      3  C   UNL     1       0.738  52.746 -23.960  1.00  0.00     0.005 A 
ATOM      4  C   UNL     1       0.204  52.202 -25.110  1.00  0.00    -0.034 A 
ATOM      5  C   UNL     1      -0.839  51.305 -25.027  1.00  0.00     0.005 A 
ATOM      6  C   UNL     1      -1.359  50.941 -23.782  1.00  0.00     0.004 A 
ENDROOT
BRANCH   1   7
ATOM      7  C   UNL     1      -1.306  51.162 -21.285  1.00  0.00     0.038 C 
BRANCH   7   8
ATOM      8  C   UNL     1      -0.338  50.238 -20.585  1.00  0.00    -0.013 C 
ATOM      9  C   UNL     1      -0.726  48.791 -20.725  1.00  0.00     0.008 C 
ATOM     10  C   UNL     1      -0.341  50.551 -19.100  1.00  0.00     0.008 C 
ENDBRANCH   7   8
ENDBRANCH   1   7
BRANCH   4  11
ATOM     11  C   UNL     1       0.799  52.626 -26.417  1.00  0.00     0.126 C 
ATOM     12  C   UNL     1       0.756  51.388 -27.298  1.00  0.00     0.025 C 
BRANCH  11  13
ATOM     13  C   UNL     1       0.067  53.754 -27.013  1.00  0.00     0.310 C 
ATOM     14  O   UNL     1      -0.600  53.544 -28.068  1.00  0.00    -0.252 OA
BRANCH  13  15
ATOM     15  O   UNL     1       0.129  54.985 -26.416  1.00  0.00    -0.481 OA
ATOM     16  H   UNL     1      -0.026  55.068 -25.414  1.00  0.00     0.296 HD
ENDBRANCH  13  15
ENDBRANCH  11  13
ENDBRANCH   4  11
TORSDOF 5
ENDMDL
