MODEL 1
REMARK VINA RESULT:    -8.810      0.000      0.000
REMARK INTER + INTRA:         -17.733
REMARK INTER:                 -15.506
REMARK INTRA:                  -2.228
REMARK UNBOUND:                -2.228
REMARK SMILES C=CC(=O)Nc1cc(Nc2ncc(C(=O)OC(C)C)c(-c3cn(C)c4ccccc34)n2)c(OC)cc1N(C)CCN(C)C
REMARK SMILES IDX 6 1 7 2 8 3 32 4 35 5 36 6 5 7 3 8 4 9 2 11 1 12 37 13 38 14
REMARK SMILES IDX 39 15 40 16 41 17 42 18 43 19 9 20 10 22 11 23 31 24 12 25
REMARK SMILES IDX 20 26 13 27 21 28 22 29 30 30 23 31 29 32 25 33 28 34 26 35
REMARK SMILES IDX 27 36 24 37 14 38 15 39 16 40 17 41 18 42 19 43 33 44 34 45
REMARK H PARENT 5 10 9 21
ROOT
ATOM      1  C   UNL     1      -0.247  49.782 -17.039  1.00  0.00     0.067 A 
ATOM      2  C   UNL     1      -0.091  50.870 -17.854  1.00  0.00     0.058 A 
ATOM      3  C   UNL     1       0.745  51.933 -17.615  1.00  0.00     0.086 A 
ATOM      4  C   UNL     1       1.484  51.859 -16.425  1.00  0.00     0.144 A 
ATOM      5  C   UNL     1       1.362  50.788 -15.574  1.00  0.00     0.076 A 
ATOM      6  C   UNL     1       0.509  49.755 -15.869  1.00  0.00     0.064 A 
ENDROOT
BRANCH   1   7
ATOM      7  N   UNL     1      -1.093  48.679 -17.265  1.00  0.00    -0.321 N 
ATOM      8  C   UNL     1      -2.422  48.727 -17.745  1.00  0.00     0.247 C 
ATOM      9  O   UNL     1      -3.022  49.783 -18.032  1.00  0.00    -0.270 OA
ATOM     10  H   UNL     1      -0.727  47.697 -17.073  1.00  0.00     0.170 HD
BRANCH   8  11
ATOM     11  C   UNL     1      -3.187  47.477 -17.934  1.00  0.00     0.064 C 
ATOM     12  C   UNL     1      -4.506  47.634 -18.142  1.00  0.00     0.014 C 
ENDBRANCH   8  11
ENDBRANCH   1   7
BRANCH   6  13
ATOM     13  N   UNL     1       0.423  48.678 -14.938  1.00  0.00    -0.372 N 
ATOM     14  C   UNL     1       1.480  47.659 -14.981  1.00  0.00     0.143 C 
BRANCH  13  15
ATOM     15  C   UNL     1      -0.599  48.513 -13.962  1.00  0.00     0.131 C 
BRANCH  15  16
ATOM     16  C   UNL     1      -1.168  49.792 -13.402  1.00  0.00     0.105 C 
BRANCH  16  17
ATOM     17  N   UNL     1      -2.600  49.762 -13.694  1.00  0.00    -0.308 NA
ATOM     18  C   UNL     1      -2.903  50.813 -14.616  1.00  0.00     0.105 C 
ATOM     19  C   UNL     1      -2.946  48.441 -14.124  1.00  0.00     0.105 C 
ENDBRANCH  16  17
ENDBRANCH  15  16
ENDBRANCH  13  15
ENDBRANCH   6  13
BRANCH   3  20
ATOM     20  N   UNL     1       0.926  53.053 -18.441  1.00  0.00    -0.321 N 
ATOM     21  H   UNL     1       1.121  53.971 -17.954  1.00  0.00     0.170 HD
BRANCH  20  22
ATOM     22  C   UNL     1       0.876  53.100 -19.849  1.00  0.00     0.227 A 
ATOM     23  N   UNL     1       1.623  53.876 -20.629  1.00  0.00    -0.220 NA
ATOM     24  N   UNL     1      -0.012  52.295 -20.486  1.00  0.00    -0.212 NA
ATOM     25  C   UNL     1       1.554  53.912 -21.965  1.00  0.00     0.133 A 
ATOM     26  C   UNL     1      -0.129  52.284 -21.821  1.00  0.00     0.093 A 
ATOM     27  C   UNL     1       0.652  53.093 -22.617  1.00  0.00     0.104 A 
BRANCH  26  28
ATOM     28  C   UNL     1      -1.120  51.380 -22.389  1.00  0.00     0.027 A 
ATOM     29  C   UNL     1      -2.089  51.642 -23.353  1.00  0.00     0.096 A 
ATOM     30  C   UNL     1      -1.322  50.040 -22.046  1.00  0.00     0.009 A 
ATOM     31  N   UNL     1      -2.826  50.542 -23.582  1.00  0.00    -0.350 N 
ATOM     32  C   UNL     1      -0.690  49.190 -21.155  1.00  0.00     0.011 A 
ATOM     33  C   UNL     1      -2.381  49.535 -22.794  1.00  0.00     0.048 A 
ATOM     34  C   UNL     1      -1.097  47.876 -21.007  1.00  0.00     0.001 A 
ATOM     35  C   UNL     1      -2.801  48.222 -22.658  1.00  0.00     0.027 A 
ATOM     36  C   UNL     1      -2.165  47.390 -21.769  1.00  0.00     0.002 A 
ATOM     37  C   UNL     1      -3.932  50.480 -24.547  1.00  0.00     0.149 C 
ENDBRANCH  26  28
BRANCH  27  38
ATOM     38  C   UNL     1       0.595  53.107 -24.065  1.00  0.00     0.342 C 
ATOM     39  O   UNL     1       0.055  54.000 -24.760  1.00  0.00    -0.246 OA
BRANCH  38  40
ATOM     40  O   UNL     1       1.179  52.057 -24.773  1.00  0.00    -0.459 OA
BRANCH  40  41
ATOM     41  C   UNL     1       1.013  51.940 -26.183  1.00  0.00     0.170 C 
ATOM     42  C   UNL     1       0.064  50.810 -26.455  1.00  0.00     0.052 C 
ATOM     43  C   UNL     1       2.355  51.592 -26.830  1.00  0.00     0.052 C 
ENDBRANCH  40  41
ENDBRANCH  38  40
ENDBRANCH  27  38
ENDBRANCH  20  22
ENDBRANCH   3  20
BRANCH   4  44
ATOM     44  O   UNL     1       2.359  52.863 -16.069  1.00  0.00    -0.494 OA
ATOM     45  C   UNL     1       3.760  52.765 -16.116  1.00  0.00     0.278 C 
ENDBRANCH   4  44
TORSDOF 13
ENDMDL
