MODEL 1
REMARK VINA RESULT:    -7.972      0.000      0.000
REMARK INTER + INTRA:         -16.491
REMARK INTER:                 -14.030
REMARK INTRA:                  -2.460
REMARK UNBOUND:                -2.460
REMARK SMILES C=CC(=O)Nc1cc(Nc2ncc(C(=O)OC(C)C)c(-c3cn(C)c4ccccc34)n2)c(OC)cc1N(C)CCN(C)C
REMARK SMILES IDX 6 1 7 2 8 3 32 4 35 5 36 6 5 7 3 8 4 9 2 11 1 12 37 13 38 14
REMARK SMILES IDX 39 15 40 16 41 17 42 18 43 19 9 20 10 22 11 23 31 24 12 25
REMARK SMILES IDX 20 26 13 27 21 28 22 29 30 30 23 31 29 32 25 33 28 34 26 35
REMARK SMILES IDX 27 36 24 37 14 38 15 39 16 40 17 41 18 42 19 43 33 44 34 45
REMARK H PARENT 5 10 9 21
ROOT
ATOM      1  C   UNL     1      -5.298  48.359 -20.342  1.00  0.00     0.067 A 
ATOM      2  C   UNL     1      -4.964  49.251 -21.335  1.00  0.00     0.058 A 
ATOM      3  C   UNL     1      -5.687  49.448 -22.489  1.00  0.00     0.086 A 
ATOM      4  C   UNL     1      -6.847  48.666 -22.633  1.00  0.00     0.144 A 
ATOM      5  C   UNL     1      -7.233  47.758 -21.675  1.00  0.00     0.076 A 
ATOM      6  C   UNL     1      -6.452  47.620 -20.549  1.00  0.00     0.064 A 
ENDROOT
BRANCH   1   7
ATOM      7  N   UNL     1      -4.582  48.118 -19.160  1.00  0.00    -0.321 N 
ATOM      8  C   UNL     1      -3.565  48.927 -18.596  1.00  0.00     0.247 C 
ATOM      9  O   UNL     1      -3.207  49.993 -19.150  1.00  0.00    -0.270 OA
ATOM     10  H   UNL     1      -4.805  47.245 -18.621  1.00  0.00     0.170 HD
BRANCH   8  11
ATOM     11  C   UNL     1      -2.893  48.567 -17.358  1.00  0.00     0.064 C 
ATOM     12  C   UNL     1      -1.783  49.127 -16.919  1.00  0.00     0.014 C 
ENDBRANCH   8  11
ENDBRANCH   1   7
BRANCH   6  13
ATOM     13  N   UNL     1      -6.927  46.667 -19.576  1.00  0.00    -0.372 N 
ATOM     14  C   UNL     1      -7.842  47.170 -18.542  1.00  0.00     0.143 C 
BRANCH  13  15
ATOM     15  C   UNL     1      -6.547  45.290 -19.579  1.00  0.00     0.131 C 
BRANCH  15  16
ATOM     16  C   UNL     1      -5.710  44.844 -18.429  1.00  0.00     0.105 C 
BRANCH  16  17
ATOM     17  N   UNL     1      -4.319  45.161 -18.534  1.00  0.00    -0.308 NA
ATOM     18  C   UNL     1      -3.699  44.625 -19.747  1.00  0.00     0.105 C 
ATOM     19  C   UNL     1      -3.565  44.742 -17.367  1.00  0.00     0.105 C 
ENDBRANCH  16  17
ENDBRANCH  15  16
ENDBRANCH  13  15
ENDBRANCH   6  13
BRANCH   3  20
ATOM     20  N   UNL     1      -5.370  50.352 -23.518  1.00  0.00    -0.321 N 
ATOM     21  H   UNL     1      -6.183  50.855 -23.989  1.00  0.00     0.170 HD
BRANCH  20  22
ATOM     22  C   UNL     1      -4.087  50.679 -24.006  1.00  0.00     0.227 A 
ATOM     23  N   UNL     1      -3.796  50.993 -25.274  1.00  0.00    -0.220 NA
ATOM     24  N   UNL     1      -3.041  50.691 -23.144  1.00  0.00    -0.212 NA
ATOM     25  C   UNL     1      -2.561  51.302 -25.684  1.00  0.00     0.133 A 
ATOM     26  C   UNL     1      -1.785  50.993 -23.492  1.00  0.00     0.093 A 
ATOM     27  C   UNL     1      -1.494  51.311 -24.779  1.00  0.00     0.104 A 
BRANCH  26  28
ATOM     28  C   UNL     1      -0.769  50.967 -22.467  1.00  0.00     0.027 A 
ATOM     29  C   UNL     1       0.126  51.936 -22.053  1.00  0.00     0.096 A 
ATOM     30  C   UNL     1      -0.513  49.874 -21.627  1.00  0.00     0.009 A 
ATOM     31  N   UNL     1       0.864  51.458 -21.038  1.00  0.00    -0.350 N 
ATOM     32  C   UNL     1      -1.076  48.615 -21.549  1.00  0.00     0.011 A 
ATOM     33  C   UNL     1       0.504  50.199 -20.748  1.00  0.00     0.048 A 
ATOM     34  C   UNL     1      -0.655  47.666 -20.619  1.00  0.00     0.001 A 
ATOM     35  C   UNL     1       0.910  49.251 -19.834  1.00  0.00     0.027 A 
ATOM     36  C   UNL     1       0.369  47.994 -19.735  1.00  0.00     0.002 A 
ATOM     37  C   UNL     1       1.925  52.158 -20.309  1.00  0.00     0.149 C 
ENDBRANCH  26  28
BRANCH  27  38
ATOM     38  C   UNL     1      -0.164  51.633 -25.276  1.00  0.00     0.342 C 
ATOM     39  O   UNL     1       0.156  52.866 -25.390  1.00  0.00    -0.246 OA
BRANCH  38  40
ATOM     40  O   UNL     1       0.791  50.726 -25.638  1.00  0.00    -0.459 OA
BRANCH  40  41
ATOM     41  C   UNL     1       2.108  51.053 -26.016  1.00  0.00     0.170 C 
ATOM     42  C   UNL     1       3.150  50.180 -25.399  1.00  0.00     0.052 C 
ATOM     43  C   UNL     1       2.220  50.958 -27.521  1.00  0.00     0.052 C 
ENDBRANCH  40  41
ENDBRANCH  38  40
ENDBRANCH  27  38
ENDBRANCH  20  22
ENDBRANCH   3  20
BRANCH   4  44
ATOM     44  O   UNL     1      -7.622  48.801 -23.753  1.00  0.00    -0.494 OA
ATOM     45  C   UNL     1      -7.967  47.683 -24.522  1.00  0.00     0.278 C 
ENDBRANCH   4  44
TORSDOF 13
ENDMDL
