MODEL 1
REMARK VINA RESULT:    -7.795      0.000      0.000
REMARK INTER + INTRA:         -14.400
REMARK INTER:                 -12.351
REMARK INTRA:                  -2.048
REMARK UNBOUND:                -2.048
REMARK SMILES C=CC(=O)Nc1cc(Nc2nccc(-c3cn(C)c4ccccc34)n2)c(OC)cc1N(C)CCN(C)C
REMARK SMILES IDX 6 1 7 2 8 3 26 4 29 5 30 6 5 7 3 8 4 9 2 11 1 12 31 13 32 14
REMARK SMILES IDX 33 15 34 16 35 17 36 18 37 19 9 20 10 22 11 23 25 24 12 25
REMARK SMILES IDX 14 26 13 27 15 28 16 29 24 30 17 31 23 32 19 33 22 34 20 35
REMARK SMILES IDX 21 36 18 37 27 38 28 39
REMARK H PARENT 5 10 9 21
ROOT
ATOM      1  C   UNL     1       0.268  49.788 -16.906  1.00  0.00     0.067 A 
ATOM      2  C   UNL     1       0.777  50.597 -17.884  1.00  0.00     0.058 A 
ATOM      3  C   UNL     1       1.888  51.407 -17.750  1.00  0.00     0.086 A 
ATOM      4  C   UNL     1       2.511  51.365 -16.486  1.00  0.00     0.144 A 
ATOM      5  C   UNL     1       2.022  50.562 -15.482  1.00  0.00     0.076 A 
ATOM      6  C   UNL     1       0.914  49.783 -15.687  1.00  0.00     0.064 A 
ENDROOT
BRANCH   1   7
ATOM      7  N   UNL     1      -0.861  48.947 -17.031  1.00  0.00    -0.321 N 
ATOM      8  C   UNL     1      -2.016  49.197 -17.799  1.00  0.00     0.247 C 
ATOM      9  O   UNL     1      -2.180  50.231 -18.485  1.00  0.00    -0.270 OA
ATOM     10  H   UNL     1      -0.867  48.018 -16.506  1.00  0.00     0.170 HD
BRANCH   8  11
ATOM     11  C   UNL     1      -3.120  48.223 -17.832  1.00  0.00     0.064 C 
ATOM     12  C   UNL     1      -3.994  48.261 -18.845  1.00  0.00     0.014 C 
ENDBRANCH   8  11
ENDBRANCH   1   7
BRANCH   6  13
ATOM     13  N   UNL     1       0.475  48.985 -14.580  1.00  0.00    -0.372 N 
ATOM     14  C   UNL     1       0.613  47.540 -14.553  1.00  0.00     0.143 C 
BRANCH  13  15
ATOM     15  C   UNL     1      -0.127  49.614 -13.430  1.00  0.00     0.131 C 
BRANCH  15  16
ATOM     16  C   UNL     1      -1.457  50.226 -13.640  1.00  0.00     0.105 C 
BRANCH  16  17
ATOM     17  N   UNL     1      -2.436  49.399 -14.256  1.00  0.00    -0.308 NA
ATOM     18  C   UNL     1      -2.998  48.391 -13.398  1.00  0.00     0.105 C 
ATOM     19  C   UNL     1      -3.547  50.291 -14.625  1.00  0.00     0.105 C 
ENDBRANCH  16  17
ENDBRANCH  15  16
ENDBRANCH  13  15
ENDBRANCH   6  13
BRANCH   3  20
ATOM     20  N   UNL     1       2.426  52.233 -18.735  1.00  0.00    -0.321 N 
ATOM     21  H   UNL     1       3.294  52.797 -18.459  1.00  0.00     0.170 HD
BRANCH  20  22
ATOM     22  C   UNL     1       1.977  52.423 -20.058  1.00  0.00     0.227 A 
ATOM     23  N   UNL     1       2.440  53.352 -20.891  1.00  0.00    -0.221 NA
ATOM     24  N   UNL     1       0.992  51.604 -20.508  1.00  0.00    -0.213 NA
ATOM     25  C   UNL     1       1.955  53.471 -22.121  1.00  0.00     0.117 A 
ATOM     26  C   UNL     1       0.454  51.674 -21.749  1.00  0.00     0.078 A 
ATOM     27  C   UNL     1       0.957  52.638 -22.572  1.00  0.00     0.049 A 
BRANCH  26  28
ATOM     28  C   UNL     1      -0.563  50.702 -22.074  1.00  0.00     0.026 A 
ATOM     29  C   UNL     1      -1.601  50.996 -22.978  1.00  0.00     0.096 A 
ATOM     30  C   UNL     1      -0.783  49.415 -21.720  1.00  0.00     0.009 A 
ATOM     31  N   UNL     1      -2.381  49.905 -23.122  1.00  0.00    -0.350 N 
ATOM     32  C   UNL     1      -0.116  48.556 -20.893  1.00  0.00     0.011 A 
ATOM     33  C   UNL     1      -1.914  48.903 -22.364  1.00  0.00     0.048 A 
ATOM     34  C   UNL     1      -0.524  47.255 -20.693  1.00  0.00     0.001 A 
ATOM     35  C   UNL     1      -2.326  47.602 -22.164  1.00  0.00     0.027 A 
ATOM     36  C   UNL     1      -1.654  46.739 -21.331  1.00  0.00     0.002 A 
ATOM     37  C   UNL     1      -3.547  49.797 -23.959  1.00  0.00     0.149 C 
ENDBRANCH  26  28
ENDBRANCH  20  22
ENDBRANCH   3  20
BRANCH   4  38
ATOM     38  O   UNL     1       3.633  52.146 -16.254  1.00  0.00    -0.494 OA
ATOM     39  C   UNL     1       4.642  51.636 -15.408  1.00  0.00     0.278 C 
ENDBRANCH   4  38
TORSDOF 10
ENDMDL
