MODEL 1
REMARK VINA RESULT:    -9.020      0.000      0.000
REMARK INTER + INTRA:         -15.735
REMARK INTER:                 -14.293
REMARK INTRA:                  -1.442
REMARK UNBOUND:                -1.442
REMARK SMILES C=CC(=O)Nc1cc(Nc2nccc(-c3cn(C)c4ccccc34)n2)c(OC)cc1N(C)CCN(C)C
REMARK SMILES IDX 6 1 7 2 8 3 26 4 29 5 30 6 5 7 3 8 4 9 2 11 1 12 31 13 32 14
REMARK SMILES IDX 33 15 34 16 35 17 36 18 37 19 9 20 10 22 11 23 25 24 12 25
REMARK SMILES IDX 14 26 13 27 15 28 16 29 24 30 17 31 23 32 19 33 22 34 20 35
REMARK SMILES IDX 21 36 18 37 27 38 28 39
REMARK H PARENT 5 10 9 21
ROOT
ATOM      1  C   UNL     1      -6.802  19.174 -14.636  1.00  0.00     0.067 A 
ATOM      2  C   UNL     1      -5.614  18.546 -14.380  1.00  0.00     0.058 A 
ATOM      3  C   UNL     1      -5.422  17.178 -14.370  1.00  0.00     0.086 A 
ATOM      4  C   UNL     1      -6.570  16.409 -14.651  1.00  0.00     0.144 A 
ATOM      5  C   UNL     1      -7.779  17.012 -14.912  1.00  0.00     0.076 A 
ATOM      6  C   UNL     1      -7.896  18.377 -14.905  1.00  0.00     0.064 A 
ENDROOT
BRANCH   1   7
ATOM      7  N   UNL     1      -7.012  20.571 -14.658  1.00  0.00    -0.321 N 
ATOM      8  C   UNL     1      -7.246  21.405 -13.547  1.00  0.00     0.247 C 
ATOM      9  O   UNL     1      -7.295  20.988 -12.368  1.00  0.00    -0.270 OA
ATOM     10  H   UNL     1      -6.993  21.076 -15.598  1.00  0.00     0.170 HD
BRANCH   8  11
ATOM     11  C   UNL     1      -7.451  22.853 -13.725  1.00  0.00     0.064 C 
ATOM     12  C   UNL     1      -8.271  23.282 -14.691  1.00  0.00     0.014 C 
ENDBRANCH   8  11
ENDBRANCH   1   7
BRANCH   6  13
ATOM     13  N   UNL     1      -9.196  18.912 -15.182  1.00  0.00    -0.372 N 
ATOM     14  C   UNL     1     -10.251  18.959 -14.186  1.00  0.00     0.143 C 
BRANCH  13  15
ATOM     15  C   UNL     1      -9.497  19.440 -16.490  1.00  0.00     0.131 C 
BRANCH  15  16
ATOM     16  C   UNL     1      -8.909  18.717 -17.638  1.00  0.00     0.105 C 
BRANCH  16  17
ATOM     17  N   UNL     1      -8.630  19.498 -18.794  1.00  0.00    -0.308 NA
ATOM     18  C   UNL     1      -8.529  18.747 -20.016  1.00  0.00     0.105 C 
ATOM     19  C   UNL     1      -9.780  20.402 -18.960  1.00  0.00     0.105 C 
ENDBRANCH  16  17
ENDBRANCH  15  16
ENDBRANCH  13  15
ENDBRANCH   6  13
BRANCH   3  20
ATOM     20  N   UNL     1      -4.220  16.520 -14.117  1.00  0.00    -0.321 N 
ATOM     21  H   UNL     1      -3.628  16.269 -14.974  1.00  0.00     0.170 HD
BRANCH  20  22
ATOM     22  C   UNL     1      -3.676  16.139 -12.873  1.00  0.00     0.227 A 
ATOM     23  N   UNL     1      -3.502  14.882 -12.473  1.00  0.00    -0.221 NA
ATOM     24  N   UNL     1      -3.314  17.132 -12.020  1.00  0.00    -0.213 NA
ATOM     25  C   UNL     1      -2.990  14.609 -11.279  1.00  0.00     0.117 A 
ATOM     26  C   UNL     1      -2.788  16.920 -10.790  1.00  0.00     0.078 A 
ATOM     27  C   UNL     1      -2.624  15.618 -10.418  1.00  0.00     0.049 A 
BRANCH  26  28
ATOM     28  C   UNL     1      -2.427  18.091 -10.026  1.00  0.00     0.026 A 
ATOM     29  C   UNL     1      -3.388  19.042  -9.636  1.00  0.00     0.096 A 
ATOM     30  C   UNL     1      -1.270  18.548  -9.494  1.00  0.00     0.009 A 
ATOM     31  N   UNL     1      -2.785  20.005  -8.909  1.00  0.00    -0.350 N 
ATOM     32  C   UNL     1       0.007  18.064  -9.502  1.00  0.00     0.011 A 
ATOM     33  C   UNL     1      -1.476  19.742  -8.795  1.00  0.00     0.048 A 
ATOM     34  C   UNL     1       1.046  18.706  -8.864  1.00  0.00     0.001 A 
ATOM     35  C   UNL     1      -0.437  20.387  -8.156  1.00  0.00     0.027 A 
ATOM     36  C   UNL     1       0.848  19.899  -8.166  1.00  0.00     0.002 A 
ATOM     37  C   UNL     1      -3.422  21.157  -8.326  1.00  0.00     0.149 C 
ENDBRANCH  26  28
ENDBRANCH  20  22
ENDBRANCH   3  20
BRANCH   4  38
ATOM     38  O   UNL     1      -6.477  15.026 -14.663  1.00  0.00    -0.494 OA
ATOM     39  C   UNL     1      -7.668  14.273 -14.577  1.00  0.00     0.278 C 
ENDBRANCH   4  38
TORSDOF 10
ENDMDL
