MODEL 1
REMARK VINA RESULT:    -5.340      0.000      0.000
REMARK INTER + INTRA:          -7.199
REMARK INTER:                  -6.433
REMARK INTRA:                  -0.767
REMARK UNBOUND:                -0.767
REMARK SMILES CC(=O)Oc1ccccc1C(=O)O
REMARK SMILES IDX 5 1 6 2 7 3 8 4 9 5 10 6 4 7 2 8 1 9 3 10 11 11 12 12 13 13
REMARK H PARENT 13 14
ROOT
ATOM      1  C   UNL     1      -9.849  22.906  27.606  1.00  0.00     0.145 A 
ATOM      2  C   UNL     1      -9.210  21.761  27.175  1.00  0.00     0.048 A 
ATOM      3  C   UNL     1      -8.532  21.797  25.978  1.00  0.00     0.004 A 
ATOM      4  C   UNL     1      -8.503  22.962  25.236  1.00  0.00     0.001 A 
ATOM      5  C   UNL     1      -9.157  24.110  25.690  1.00  0.00     0.019 A 
ATOM      6  C   UNL     1      -9.839  24.086  26.889  1.00  0.00     0.102 A 
ENDROOT
BRANCH   1   7
ATOM      7  O   UNL     1     -10.538  22.859  28.830  1.00  0.00    -0.426 OA
BRANCH   7   8
ATOM      8  C   UNL     1     -11.735  22.166  28.948  1.00  0.00     0.308 C 
ATOM      9  C   UNL     1     -11.896  20.925  29.732  1.00  0.00     0.139 C 
ATOM     10  O   UNL     1     -12.768  22.604  28.357  1.00  0.00    -0.252 OA
ENDBRANCH   7   8
ENDBRANCH   1   7
BRANCH   6  11
ATOM     11  C   UNL     1     -10.514  25.300  27.340  1.00  0.00     0.339 C 
ATOM     12  O   UNL     1      -9.876  26.369  27.563  1.00  0.00    -0.246 OA
BRANCH  11  13
ATOM     13  O   UNL     1     -11.887  25.319  27.541  1.00  0.00    -0.478 OA
ATOM     14  H   UNL     1     -12.415  26.189  27.619  1.00  0.00     0.297 HD
ENDBRANCH  11  13
ENDBRANCH   6  11
TORSDOF 4
ENDMDL
