MODEL 1
REMARK VINA RESULT:    -7.857      0.000      0.000
REMARK INTER + INTRA:         -12.767
REMARK INTER:                 -11.531
REMARK INTRA:                  -1.237
REMARK UNBOUND:                -1.237
REMARK SMILES COc1cc2ncnc(Nc3ccc(F)c(Cl)c3)c2cc1OCCCN1CCOCC1
REMARK SMILES IDX 22 1 21 2 3 3 4 4 5 5 20 6 6 7 19 8 7 9 9 10 8 11 2 12 1 13
REMARK SMILES IDX 10 14 11 16 12 17 18 18 13 19 16 20 14 21 17 22 15 23 23 24
REMARK SMILES IDX 24 25 25 26 26 27 27 28 31 29 28 30 30 31 29 32
REMARK H PARENT 10 15
ROOT
ATOM      1  O   UNL     1      62.766  40.751 118.627  1.00  0.00    -0.490 OA
ENDROOT
BRANCH   1   2
ATOM      2  C   UNL     1      62.090  41.659 119.441  1.00  0.00     0.162 A 
ATOM      3  C   UNL     1      61.954  42.962 119.008  1.00  0.00     0.162 A 
ATOM      4  C   UNL     1      61.282  43.846 119.826  1.00  0.00     0.079 A 
ATOM      5  C   UNL     1      60.765  43.440 121.036  1.00  0.00     0.080 A 
ATOM      6  C   UNL     1      61.561  41.267 120.663  1.00  0.00     0.064 A 
ATOM      7  N   UNL     1      60.115  44.346 121.800  1.00  0.00    -0.236 NA
ATOM      8  C   UNL     1      60.890  42.137 121.491  1.00  0.00     0.047 A 
ATOM      9  C   UNL     1      59.596  43.964 123.003  1.00  0.00     0.224 A 
ATOM     10  C   UNL     1      60.357  41.740 122.724  1.00  0.00     0.141 A 
ATOM     11  N   UNL     1      59.733  42.703 123.411  1.00  0.00    -0.219 NA
BRANCH   3  12
ATOM     12  O   UNL     1      62.490  43.333 117.782  1.00  0.00    -0.493 OA
ATOM     13  C   UNL     1      63.583  44.260 117.766  1.00  0.00     0.278 C 
ENDBRANCH   3  12
BRANCH  10  14
ATOM     14  N   UNL     1      60.497  40.402 123.165  1.00  0.00    -0.340 N 
ATOM     15  H   UNL     1      61.464  40.035 123.325  1.00  0.00     0.168 HD
BRANCH  14  16
ATOM     16  C   UNL     1      59.447  39.493 123.416  1.00  0.00     0.041 A 
ATOM     17  C   UNL     1      58.610  39.119 122.351  1.00  0.00     0.029 A 
ATOM     18  C   UNL     1      59.156  38.926 124.623  1.00  0.00     0.049 A 
ATOM     19  C   UNL     1      57.568  38.244 122.501  1.00  0.00     0.043 A 
ATOM     20  C   UNL     1      58.100  38.039 124.780  1.00  0.00     0.078 A 
ATOM     21  C   UNL     1      57.291  37.683 123.725  1.00  0.00     0.141 A 
ATOM     22  Cl  UNL     1      57.771  37.344 126.337  1.00  0.00    -0.081 Cl
ATOM     23  F   UNL     1      56.275  36.815 123.922  1.00  0.00    -0.205 F 
ENDBRANCH  14  16
ENDBRANCH  10  14
ENDBRANCH   1   2
BRANCH   1  24
ATOM     24  C   UNL     1      62.089  39.841 117.782  1.00  0.00     0.231 C 
BRANCH  24  25
ATOM     25  C   UNL     1      62.387  38.454 118.272  1.00  0.00     0.057 C 
BRANCH  25  26
ATOM     26  C   UNL     1      62.934  37.562 117.187  1.00  0.00     0.088 C 
BRANCH  26  27
ATOM     27  N   UNL     1      64.067  36.828 117.667  1.00  0.00    -0.299 NA
ATOM     28  C   UNL     1      63.930  36.630 119.099  1.00  0.00     0.113 C 
ATOM     29  C   UNL     1      64.330  35.596 116.995  1.00  0.00     0.113 C 
ATOM     30  C   UNL     1      63.876  35.150 119.439  1.00  0.00     0.175 C 
ATOM     31  C   UNL     1      63.194  34.637 117.274  1.00  0.00     0.175 C 
ATOM     32  O   UNL     1      62.967  34.484 118.621  1.00  0.00    -0.379 OA
ENDBRANCH  26  27
ENDBRANCH  25  26
ENDBRANCH  24  25
ENDBRANCH   1  24
TORSDOF 8
ENDMDL
