MODEL 1
REMARK VINA RESULT:    -5.984      0.000      0.000
REMARK INTER + INTRA:          -8.031
REMARK INTER:                  -7.558
REMARK INTRA:                  -0.473
REMARK UNBOUND:                -0.473
REMARK SMILES CC(C)Cc1ccc(C(C)C(=O)O)cc1
REMARK SMILES IDX 5 1 6 2 7 3 8 4 14 5 15 6 4 7 2 8 1 9 3 10 9 11 10 12 11 13
REMARK SMILES IDX 12 14 13 15
REMARK H PARENT 13 16
ROOT
ATOM      1  C   UNL     1     -10.166  21.886  30.019  1.00  0.00    -0.048 A 
ATOM      2  C   UNL     1      -9.230  20.912  29.761  1.00  0.00     0.004 A 
ATOM      3  C   UNL     1      -9.161  19.745  30.496  1.00  0.00     0.005 A 
ATOM      4  C   UNL     1     -10.068  19.539  31.538  1.00  0.00    -0.034 A 
ATOM      5  C   UNL     1     -11.008  20.519  31.797  1.00  0.00     0.005 A 
ATOM      6  C   UNL     1     -11.051  21.665  31.049  1.00  0.00     0.004 A 
ENDROOT
BRANCH   1   7
ATOM      7  C   UNL     1     -10.155  23.096  29.175  1.00  0.00     0.038 C 
BRANCH   7   8
ATOM      8  C   UNL     1     -10.645  22.809  27.752  1.00  0.00    -0.013 C 
ATOM      9  C   UNL     1     -12.124  23.160  27.717  1.00  0.00     0.008 C 
ATOM     10  C   UNL     1      -9.925  23.658  26.755  1.00  0.00     0.008 C 
ENDBRANCH   7   8
ENDBRANCH   1   7
BRANCH   4  11
ATOM     11  C   UNL     1     -10.075  18.335  32.375  1.00  0.00     0.126 C 
ATOM     12  C   UNL     1     -11.309  17.478  32.156  1.00  0.00     0.025 C 
BRANCH  11  13
ATOM     13  C   UNL     1      -8.878  17.490  32.224  1.00  0.00     0.310 C 
ATOM     14  O   UNL     1      -8.859  16.391  31.622  1.00  0.00    -0.252 OA
BRANCH  13  15
ATOM     15  O   UNL     1      -7.693  17.946  32.789  1.00  0.00    -0.481 OA
ATOM     16  H   UNL     1      -7.311  17.619  33.667  1.00  0.00     0.296 HD
ENDBRANCH  13  15
ENDBRANCH  11  13
ENDBRANCH   4  11
TORSDOF 5
ENDMDL
