MODEL 1
REMARK VINA RESULT:    -8.412      0.000      0.000
REMARK INTER + INTRA:         -15.027
REMARK INTER:                 -13.329
REMARK INTRA:                  -1.698
REMARK UNBOUND:                -1.698
REMARK SMILES C=CC(=O)Nc1cc(Nc2nccc(-c3cn(C)c4ccccc34)n2)c(OC)cc1N(C)CCN(C)C
REMARK SMILES IDX 6 1 7 2 8 3 26 4 29 5 30 6 5 7 3 8 4 9 2 11 1 12 31 13 32 14
REMARK SMILES IDX 33 15 34 16 35 17 36 18 37 19 9 20 10 22 11 23 25 24 12 25
REMARK SMILES IDX 14 26 13 27 15 28 16 29 24 30 17 31 23 32 19 33 22 34 20 35
REMARK SMILES IDX 21 36 18 37 27 38 28 39
REMARK H PARENT 5 10 9 21
ROOT
ATOM      1  C   UNL     1     -15.359  21.855  30.059  1.00  0.00     0.067 A 
ATOM      2  C   UNL     1     -14.162  22.374  29.646  1.00  0.00     0.058 A 
ATOM      3  C   UNL     1     -13.992  23.235  28.580  1.00  0.00     0.086 A 
ATOM      4  C   UNL     1     -15.175  23.578  27.892  1.00  0.00     0.144 A 
ATOM      5  C   UNL     1     -16.393  23.071  28.283  1.00  0.00     0.076 A 
ATOM      6  C   UNL     1     -16.486  22.221  29.352  1.00  0.00     0.064 A 
ENDROOT
BRANCH   1   7
ATOM      7  N   UNL     1     -15.549  20.981  31.152  1.00  0.00    -0.321 N 
ATOM      8  C   UNL     1     -15.128  21.189  32.481  1.00  0.00     0.247 C 
ATOM      9  O   UNL     1     -14.515  22.213  32.859  1.00  0.00    -0.270 OA
ATOM     10  H   UNL     1     -16.066  20.061  30.988  1.00  0.00     0.170 HD
BRANCH   8  11
ATOM     11  C   UNL     1     -15.397  20.182  33.521  1.00  0.00     0.064 C 
ATOM     12  C   UNL     1     -15.833  18.970  33.159  1.00  0.00     0.014 C 
ENDBRANCH   8  11
ENDBRANCH   1   7
BRANCH   6  13
ATOM     13  N   UNL     1     -17.796  21.740  29.680  1.00  0.00    -0.372 N 
ATOM     14  C   UNL     1     -18.411  20.617  28.997  1.00  0.00     0.143 C 
BRANCH  13  15
ATOM     15  C   UNL     1     -18.556  22.373  30.730  1.00  0.00     0.131 C 
BRANCH  15  16
ATOM     16  C   UNL     1     -19.564  23.367  30.300  1.00  0.00     0.105 C 
BRANCH  16  17
ATOM     17  N   UNL     1     -19.480  24.648  30.912  1.00  0.00    -0.308 NA
ATOM     18  C   UNL     1     -18.301  25.400  30.574  1.00  0.00     0.105 C 
ATOM     19  C   UNL     1     -20.622  25.419  30.398  1.00  0.00     0.105 C 
ENDBRANCH  16  17
ENDBRANCH  15  16
ENDBRANCH  13  15
ENDBRANCH   6  13
BRANCH   3  20
ATOM     20  N   UNL     1     -12.785  23.779  28.147  1.00  0.00    -0.321 N 
ATOM     21  H   UNL     1     -12.787  24.828  27.932  1.00  0.00     0.170 HD
BRANCH  20  22
ATOM     22  C   UNL     1     -11.550  23.125  27.957  1.00  0.00     0.227 A 
ATOM     23  N   UNL     1     -10.656  23.447  27.025  1.00  0.00    -0.221 NA
ATOM     24  N   UNL     1     -11.260  22.084  28.779  1.00  0.00    -0.213 NA
ATOM     25  C   UNL     1      -9.518  22.773  26.906  1.00  0.00     0.117 A 
ATOM     26  C   UNL     1     -10.120  21.357  28.709  1.00  0.00     0.078 A 
ATOM     27  C   UNL     1      -9.229  21.720  27.743  1.00  0.00     0.049 A 
BRANCH  26  28
ATOM     28  C   UNL     1      -9.957  20.305  29.685  1.00  0.00     0.026 A 
ATOM     29  C   UNL     1      -8.695  19.985  30.221  1.00  0.00     0.096 A 
ATOM     30  C   UNL     1     -10.811  19.470  30.321  1.00  0.00     0.009 A 
ATOM     31  N   UNL     1      -8.840  18.997  31.127  1.00  0.00    -0.350 N 
ATOM     32  C   UNL     1     -12.166  19.306  30.255  1.00  0.00     0.011 A 
ATOM     33  C   UNL     1     -10.130  18.646  31.223  1.00  0.00     0.048 A 
ATOM     34  C   UNL     1     -12.837  18.383  31.026  1.00  0.00     0.001 A 
ATOM     35  C   UNL     1     -10.800  17.721  31.995  1.00  0.00     0.027 A 
ATOM     36  C   UNL     1     -12.163  17.556  31.927  1.00  0.00     0.002 A 
ATOM     37  C   UNL     1      -7.787  18.387  31.897  1.00  0.00     0.149 C 
ENDBRANCH  26  28
ENDBRANCH  20  22
ENDBRANCH   3  20
BRANCH   4  38
ATOM     38  O   UNL     1     -15.106  24.436  26.805  1.00  0.00    -0.494 OA
ATOM     39  C   UNL     1     -16.300  25.031  26.344  1.00  0.00     0.278 C 
ENDBRANCH   4  38
TORSDOF 10
ENDMDL
