MODEL 1
REMARK VINA RESULT:    -5.132      0.000      0.000
REMARK INTER + INTRA:          -6.702
REMARK INTER:                  -6.181
REMARK INTRA:                  -0.521
REMARK UNBOUND:                -0.521
REMARK SMILES CC(=O)Oc1ccccc1C(=O)O
REMARK SMILES IDX 5 1 6 2 7 3 8 4 9 5 10 6 4 7 2 8 1 9 3 10 11 11 12 12 13 13
REMARK H PARENT 13 14
ROOT
ATOM      1  C   UNL     1     -51.365   0.223 -22.990  1.00  0.00     0.145 A 
ATOM      2  C   UNL     1     -50.138  -0.410 -23.011  1.00  0.00     0.048 A 
ATOM      3  C   UNL     1     -49.323  -0.299 -21.907  1.00  0.00     0.004 A 
ATOM      4  C   UNL     1     -49.740   0.432 -20.812  1.00  0.00     0.001 A 
ATOM      5  C   UNL     1     -50.985   1.065 -20.813  1.00  0.00     0.019 A 
ATOM      6  C   UNL     1     -51.811   0.961 -21.912  1.00  0.00     0.102 A 
ENDROOT
BRANCH   1   7
ATOM      7  O   UNL     1     -52.189   0.103 -24.123  1.00  0.00    -0.426 OA
BRANCH   7   8
ATOM      8  C   UNL     1     -51.748   0.514 -25.372  1.00  0.00     0.308 C 
ATOM      9  C   UNL     1     -51.118   1.824 -25.635  1.00  0.00     0.139 C 
ATOM     10  O   UNL     1     -51.879  -0.264 -26.366  1.00  0.00    -0.252 OA
ENDBRANCH   7   8
ENDBRANCH   1   7
BRANCH   6  11
ATOM     11  C   UNL     1     -53.107   1.632 -21.887  1.00  0.00     0.339 C 
ATOM     12  O   UNL     1     -53.720   1.850 -20.802  1.00  0.00    -0.246 OA
BRANCH  11  13
ATOM     13  O   UNL     1     -53.714   2.055 -23.061  1.00  0.00    -0.478 OA
ATOM     14  H   UNL     1     -53.177   2.372 -23.869  1.00  0.00     0.297 HD
ENDBRANCH  11  13
ENDBRANCH   6  11
TORSDOF 4
ENDMDL
