MODEL 1
REMARK VINA RESULT:    -4.981      0.000      0.000
REMARK INTER + INTRA:          -4.981
REMARK INTER:                  -4.981
REMARK INTRA:                   0.000
REMARK UNBOUND:                 0.000
REMARK SMILES Cn1c(=O)c2c(ncn2C)n(C)c1=O
REMARK SMILES IDX 10 1 9 2 8 3 7 4 6 5 5 6 3 7 4 8 2 9 13 10 14 11 11 12 12 13
REMARK SMILES IDX 1 14
REMARK H PARENT
ROOT
ATOM      1  C   UNL     1     -53.276   0.084 -27.616  1.00  0.00     0.151 C 
ATOM      2  N   UNL     1     -52.832  -1.226 -27.187  1.00  0.00    -0.328 N 
ATOM      3  C   UNL     1     -52.610  -2.332 -27.957  1.00  0.00     0.202 A 
ATOM      4  N   UNL     1     -52.208  -3.323 -27.151  1.00  0.00    -0.218 NA
ATOM      5  C   UNL     1     -52.171  -2.882 -25.907  1.00  0.00     0.167 A 
ATOM      6  C   UNL     1     -52.562  -1.558 -25.910  1.00  0.00     0.152 A 
ATOM      7  C   UNL     1     -52.601  -0.869 -24.697  1.00  0.00     0.282 A 
ATOM      8  O   UNL     1     -52.955   0.342 -24.670  1.00  0.00    -0.267 OA
ATOM      9  N   UNL     1     -52.263  -1.497 -23.555  1.00  0.00    -0.261 N 
ATOM     10  C   UNL     1     -51.882  -2.789 -23.559  1.00  0.00     0.332 A 
ATOM     11  O   UNL     1     -51.572  -3.346 -22.480  1.00  0.00    -0.247 OA
ATOM     12  N   UNL     1     -51.839  -3.465 -24.721  1.00  0.00    -0.279 N 
ATOM     13  C   UNL     1     -51.417  -4.873 -24.674  1.00  0.00     0.157 C 
ATOM     14  C   UNL     1     -52.322  -0.731 -22.314  1.00  0.00     0.159 C 
ENDROOT
TORSDOF 0
ENDMDL
