MODEL 1
REMARK VINA RESULT:    -6.990      0.000      0.000
REMARK INTER + INTRA:         -12.534
REMARK INTER:                 -10.668
REMARK INTRA:                  -1.866
REMARK UNBOUND:                -1.866
REMARK SMILES CN(C)C/C=C/C(=O)Nc1cc2c(Nc3ccc(F)c(Cl)c3)ncnc2cc1O[C@H]1CCOC1
REMARK SMILES IDX 7 1 8 2 9 3 6 5 5 6 4 7 2 8 1 9 3 10 10 11 11 12 28 13 12 14
REMARK SMILES IDX 27 15 13 16 26 17 23 18 25 19 24 20 29 21 30 22 31 23 34 24
REMARK SMILES IDX 32 25 33 26 14 27 15 29 16 30 22 31 17 32 20 33 18 34 21 35
REMARK SMILES IDX 19 36
REMARK H PARENT 9 4 14 28
ROOT
ATOM      1  C   UNL     1      -0.242 -52.092 125.279  1.00  0.00     0.248 C 
ATOM      2  O   UNL     1      -0.512 -50.970 124.786  1.00  0.00    -0.270 OA
ATOM      3  N   UNL     1       1.024 -52.343 125.829  1.00  0.00    -0.319 N 
ATOM      4  H   UNL     1       1.162 -53.323 126.223  1.00  0.00     0.170 HD
ENDROOT
BRANCH   1   5
ATOM      5  C   UNL     1      -1.327 -53.084 125.232  1.00  0.00     0.068 C 
BRANCH   5   6
ATOM      6  C   UNL     1      -2.030 -53.330 124.142  1.00  0.00    -0.006 C 
BRANCH   6   7
ATOM      7  C   UNL     1      -1.520 -54.271 123.108  1.00  0.00     0.111 C 
BRANCH   7   8
ATOM      8  N   UNL     1      -1.528 -53.746 121.774  1.00  0.00    -0.306 NA
ATOM      9  C   UNL     1      -0.770 -52.516 121.652  1.00  0.00     0.105 C 
ATOM     10  C   UNL     1      -1.181 -54.676 120.754  1.00  0.00     0.105 C 
ENDBRANCH   7   8
ENDBRANCH   6   7
ENDBRANCH   5   6
ENDBRANCH   1   5
BRANCH   3  11
ATOM     11  C   UNL     1       2.116 -51.463 125.919  1.00  0.00     0.085 A 
ATOM     12  C   UNL     1       3.105 -51.289 124.983  1.00  0.00     0.044 A 
ATOM     13  C   UNL     1       2.236 -50.666 127.069  1.00  0.00     0.145 A 
ATOM     14  C   UNL     1       4.154 -50.411 125.115  1.00  0.00     0.045 A 
ATOM     15  C   UNL     1       3.275 -49.779 127.230  1.00  0.00     0.077 A 
ATOM     16  C   UNL     1       5.148 -50.259 124.137  1.00  0.00     0.141 A 
ATOM     17  C   UNL     1       4.235 -49.648 126.260  1.00  0.00     0.080 A 
ATOM     18  N   UNL     1       6.091 -49.361 124.433  1.00  0.00    -0.219 NA
ATOM     19  N   UNL     1       5.233 -48.757 126.477  1.00  0.00    -0.236 NA
ATOM     20  C   UNL     1       6.182 -48.616 125.536  1.00  0.00     0.224 A 
BRANCH  13  21
ATOM     21  O   UNL     1       1.300 -50.777 128.046  1.00  0.00    -0.486 OA
BRANCH  21  22
ATOM     22  C   UNL     1       0.306 -49.915 128.454  1.00  0.00     0.201 C 
ATOM     23  C   UNL     1      -1.052 -50.562 128.601  1.00  0.00     0.076 C 
ATOM     24  C   UNL     1       0.556 -49.493 129.910  1.00  0.00     0.205 C 
ATOM     25  C   UNL     1      -1.593 -49.956 129.878  1.00  0.00     0.164 C 
ATOM     26  O   UNL     1      -0.684 -48.980 130.287  1.00  0.00    -0.377 OA
ENDBRANCH  21  22
ENDBRANCH  13  21
BRANCH  16  27
ATOM     27  N   UNL     1       5.123 -51.017 122.942  1.00  0.00    -0.340 N 
ATOM     28  H   UNL     1       5.893 -51.702 122.781  1.00  0.00     0.168 HD
BRANCH  27  29
ATOM     29  C   UNL     1       4.144 -50.943 121.922  1.00  0.00     0.041 A 
ATOM     30  C   UNL     1       3.656 -52.137 121.374  1.00  0.00     0.029 A 
ATOM     31  C   UNL     1       3.614 -49.792 121.411  1.00  0.00     0.049 A 
ATOM     32  C   UNL     1       2.705 -52.162 120.384  1.00  0.00     0.043 A 
ATOM     33  C   UNL     1       2.644 -49.790 120.401  1.00  0.00     0.078 A 
ATOM     34  C   UNL     1       2.194 -50.985 119.892  1.00  0.00     0.141 A 
ATOM     35  Cl  UNL     1       2.006 -48.278 119.789  1.00  0.00    -0.081 Cl
ATOM     36  F   UNL     1       1.255 -50.932 118.918  1.00  0.00    -0.205 F 
ENDBRANCH  27  29
ENDBRANCH  16  27
ENDBRANCH   3  11
TORSDOF 9
ENDMDL
