MODEL 1
REMARK VINA RESULT:    -5.220      0.000      0.000
REMARK INTER + INTRA:          -7.030
REMARK INTER:                  -6.288
REMARK INTRA:                  -0.742
REMARK UNBOUND:                -0.742
REMARK SMILES CC(=O)Oc1ccccc1C(=O)O
REMARK SMILES IDX 5 1 6 2 7 3 8 4 9 5 10 6 4 7 2 8 1 9 3 10 11 11 12 12 13 13
REMARK H PARENT 13 14
ROOT
ATOM      1  C   UNL     1     -51.954   0.187 -22.082  1.00  0.00     0.145 A 
ATOM      2  C   UNL     1     -51.311  -1.027 -22.219  1.00  0.00     0.048 A 
ATOM      3  C   UNL     1     -51.446  -1.959 -21.216  1.00  0.00     0.004 A 
ATOM      4  C   UNL     1     -52.212  -1.670 -20.104  1.00  0.00     0.001 A 
ATOM      5  C   UNL     1     -52.854  -0.435 -19.985  1.00  0.00     0.019 A 
ATOM      6  C   UNL     1     -52.727   0.507 -20.984  1.00  0.00     0.102 A 
ENDROOT
BRANCH   1   7
ATOM      7  O   UNL     1     -51.809   1.132 -23.113  1.00  0.00    -0.426 OA
BRANCH   7   8
ATOM      8  C   UNL     1     -52.376   0.918 -24.361  1.00  0.00     0.308 C 
ATOM      9  C   UNL     1     -51.628   0.419 -25.533  1.00  0.00     0.139 C 
ATOM     10  O   UNL     1     -53.610   1.158 -24.534  1.00  0.00    -0.252 OA
ENDBRANCH   7   8
ENDBRANCH   1   7
BRANCH   6  11
ATOM     11  C   UNL     1     -53.408   1.790 -20.835  1.00  0.00     0.339 C 
ATOM     12  O   UNL     1     -53.138   2.578 -19.883  1.00  0.00    -0.246 OA
BRANCH  11  13
ATOM     13  O   UNL     1     -54.382   2.189 -21.739  1.00  0.00    -0.478 OA
ATOM     14  H   UNL     1     -55.061   1.536 -22.134  1.00  0.00     0.297 HD
ENDBRANCH  11  13
ENDBRANCH   6  11
TORSDOF 4
ENDMDL
