MODEL 1
REMARK VINA RESULT:    -5.175      0.000      0.000
REMARK INTER + INTRA:          -6.787
REMARK INTER:                  -6.233
REMARK INTRA:                  -0.554
REMARK UNBOUND:                -0.554
REMARK SMILES CC(=O)Oc1ccccc1C(=O)O
REMARK SMILES IDX 5 1 6 2 7 3 8 4 9 5 10 6 4 7 2 8 1 9 3 10 11 11 12 12 13 13
REMARK H PARENT 13 14
ROOT
ATOM      1  C   UNL     1      56.867  39.560 125.592  1.00  0.00     0.145 A 
ATOM      2  C   UNL     1      56.546  40.684 124.859  1.00  0.00     0.048 A 
ATOM      3  C   UNL     1      55.768  41.654 125.448  1.00  0.00     0.004 A 
ATOM      4  C   UNL     1      55.328  41.490 126.747  1.00  0.00     0.001 A 
ATOM      5  C   UNL     1      55.664  40.345 127.472  1.00  0.00     0.019 A 
ATOM      6  C   UNL     1      56.444  39.366 126.892  1.00  0.00     0.102 A 
ENDROOT
BRANCH   1   7
ATOM      7  O   UNL     1      57.662  38.575 124.980  1.00  0.00    -0.426 OA
BRANCH   7   8
ATOM      8  C   UNL     1      57.152  37.777 123.966  1.00  0.00     0.308 C 
ATOM      9  C   UNL     1      57.439  37.982 122.532  1.00  0.00     0.139 C 
ATOM     10  O   UNL     1      56.392  36.805 124.261  1.00  0.00    -0.252 OA
ENDBRANCH   7   8
ENDBRANCH   1   7
BRANCH   6  11
ATOM     11  C   UNL     1      56.781  38.178 127.672  1.00  0.00     0.339 C 
ATOM     12  O   UNL     1      56.017  37.742 128.580  1.00  0.00    -0.246 OA
BRANCH  11  13
ATOM     13  O   UNL     1      57.961  37.485 127.440  1.00  0.00    -0.478 OA
ATOM     14  H   UNL     1      57.971  36.514 127.127  1.00  0.00     0.297 HD
ENDBRANCH  11  13
ENDBRANCH   6  11
TORSDOF 4
ENDMDL
