MODEL 1
REMARK VINA RESULT:    -6.373      0.000      0.000
REMARK INTER + INTRA:          -8.052
REMARK INTER:                  -7.676
REMARK INTRA:                  -0.375
REMARK UNBOUND:                -0.375
REMARK SMILES CC(=O)Oc1ccccc1C(=O)O
REMARK SMILES IDX 5 1 6 2 7 3 8 4 9 5 10 6 4 7 2 8 1 9 3 10 11 11 12 12 13 13
REMARK H PARENT 13 14
ROOT
ATOM      1  C   UNL     1      -8.817  -9.961  -0.491  1.00  0.00     0.145 A 
ATOM      2  C   UNL     1      -9.038 -11.205  -1.086  1.00  0.00     0.048 A 
ATOM      3  C   UNL     1      -9.845 -11.318  -2.209  1.00  0.00     0.004 A 
ATOM      4  C   UNL     1     -10.456 -10.195  -2.772  1.00  0.00     0.001 A 
ATOM      5  C   UNL     1     -10.226  -8.971  -2.170  1.00  0.00     0.019 A 
ATOM      6  C   UNL     1      -9.424  -8.855  -1.052  1.00  0.00     0.102 A 
ENDROOT
BRANCH   1   7
ATOM      7  O   UNL     1      -8.005  -9.898   0.627  1.00  0.00    -0.426 OA
BRANCH   7   8
ATOM      8  C   UNL     1      -6.969 -10.815   0.861  1.00  0.00     0.308 C 
ATOM      9  C   UNL     1      -7.217 -12.021   1.719  1.00  0.00     0.139 C 
ATOM     10  O   UNL     1      -5.826 -10.662   0.373  1.00  0.00    -0.252 OA
ENDBRANCH   7   8
ENDBRANCH   1   7
BRANCH   6  11
ATOM     11  C   UNL     1      -9.212  -7.538  -0.452  1.00  0.00     0.339 C 
ATOM     12  O   UNL     1     -10.173  -6.899   0.036  1.00  0.00    -0.246 OA
BRANCH  11  13
ATOM     13  O   UNL     1      -7.952  -6.973  -0.411  1.00  0.00    -0.478 OA
ATOM     14  H   UNL     1      -7.142  -7.398  -0.890  1.00  0.00     0.297 HD
ENDBRANCH  11  13
ENDBRANCH   6  11
TORSDOF 4
ENDMDL
