MODEL 1
REMARK VINA RESULT:    -5.306      0.000      0.000
REMARK INTER + INTRA:          -5.306
REMARK INTER:                  -5.306
REMARK INTRA:                   0.000
REMARK UNBOUND:                 0.000
REMARK SMILES Cn1c(=O)c2c(ncn2C)n(C)c1=O
REMARK SMILES IDX 10 1 9 2 8 3 7 4 6 5 5 6 3 7 4 8 2 9 13 10 14 11 11 12 12 13
REMARK SMILES IDX 1 14
REMARK H PARENT
ROOT
ATOM      1  C   UNL     1     -50.884   0.546 -19.467  1.00  0.00     0.151 C 
ATOM      2  N   UNL     1     -51.908   0.922 -20.420  1.00  0.00    -0.328 N 
ATOM      3  C   UNL     1     -53.002   1.712 -20.211  1.00  0.00     0.202 A 
ATOM      4  N   UNL     1     -53.678   1.797 -21.364  1.00  0.00    -0.218 NA
ATOM      5  C   UNL     1     -53.050   1.090 -22.286  1.00  0.00     0.167 A 
ATOM      6  C   UNL     1     -51.928   0.530 -21.709  1.00  0.00     0.152 A 
ATOM      7  C   UNL     1     -51.097  -0.268 -22.496  1.00  0.00     0.282 A 
ATOM      8  O   UNL     1     -50.065  -0.792 -21.995  1.00  0.00    -0.267 OA
ATOM      9  N   UNL     1     -51.396  -0.478 -23.792  1.00  0.00    -0.261 N 
ATOM     10  C   UNL     1     -52.493   0.071 -24.349  1.00  0.00     0.332 A 
ATOM     11  O   UNL     1     -52.745  -0.142 -25.559  1.00  0.00    -0.247 OA
ATOM     12  N   UNL     1     -53.302   0.843 -23.603  1.00  0.00    -0.279 N 
ATOM     13  C   UNL     1     -54.487   1.420 -24.256  1.00  0.00     0.157 C 
ATOM     14  C   UNL     1     -50.495  -1.320 -24.571  1.00  0.00     0.159 C 
ENDROOT
TORSDOF 0
ENDMDL
