MODEL 1
REMARK VINA RESULT:    -5.174      0.000      0.000
REMARK INTER + INTRA:          -5.174
REMARK INTER:                  -5.174
REMARK INTRA:                   0.000
REMARK UNBOUND:                 0.000
REMARK SMILES Cn1c(=O)c2c(ncn2C)n(C)c1=O
REMARK SMILES IDX 10 1 9 2 8 3 7 4 6 5 5 6 3 7 4 8 2 9 13 10 14 11 11 12 12 13
REMARK SMILES IDX 1 14
REMARK H PARENT
ROOT
ATOM      1  C   UNL     1      54.833  40.125 129.445  1.00  0.00     0.151 C 
ATOM      2  N   UNL     1      55.249  40.779 128.221  1.00  0.00    -0.328 N 
ATOM      3  C   UNL     1      55.236  42.115 127.935  1.00  0.00     0.202 A 
ATOM      4  N   UNL     1      55.707  42.275 126.691  1.00  0.00    -0.218 NA
ATOM      5  C   UNL     1      56.013  41.093 126.188  1.00  0.00     0.167 A 
ATOM      6  C   UNL     1      55.731  40.135 127.141  1.00  0.00     0.152 A 
ATOM      7  C   UNL     1      55.977  38.796 126.836  1.00  0.00     0.282 A 
ATOM      8  O   UNL     1      55.729  37.899 127.687  1.00  0.00    -0.267 OA
ATOM      9  N   UNL     1      56.478  38.460 125.632  1.00  0.00    -0.261 N 
ATOM     10  C   UNL     1      56.750  39.401 124.707  1.00  0.00     0.332 A 
ATOM     11  O   UNL     1      57.217  39.058 123.595  1.00  0.00    -0.247 OA
ATOM     12  N   UNL     1      56.520  40.695 124.988  1.00  0.00    -0.279 N 
ATOM     13  C   UNL     1      56.833  41.685 123.946  1.00  0.00     0.157 C 
ATOM     14  C   UNL     1      56.715  37.046 125.364  1.00  0.00     0.159 C 
ENDROOT
TORSDOF 0
ENDMDL
