MODEL 1
REMARK VINA RESULT:    -6.315      0.000      0.000
REMARK INTER + INTRA:          -6.315
REMARK INTER:                  -6.315
REMARK INTRA:                   0.000
REMARK UNBOUND:                 0.000
REMARK SMILES Cn1c(=O)c2c(ncn2C)n(C)c1=O
REMARK SMILES IDX 10 1 9 2 8 3 7 4 6 5 5 6 3 7 4 8 2 9 13 10 14 11 11 12 12 13
REMARK SMILES IDX 1 14
REMARK H PARENT
ROOT
ATOM      1  C   UNL     1      -0.341  -9.502   7.412  1.00  0.00     0.151 C 
ATOM      2  N   UNL     1       0.891  -8.750   7.664  1.00  0.00    -0.328 N 
ATOM      3  C   UNL     1       0.985  -7.408   7.731  1.00  0.00     0.202 A 
ATOM      4  N   UNL     1       2.277  -7.081   7.979  1.00  0.00    -0.218 NA
ATOM      5  C   UNL     1       2.984  -8.215   8.066  1.00  0.00     0.167 A 
ATOM      6  C   UNL     1       2.117  -9.264   7.869  1.00  0.00     0.152 A 
ATOM      7  C   UNL     1       2.592 -10.551   7.909  1.00  0.00     0.282 A 
ATOM      8  O   UNL     1       1.772 -11.479   7.725  1.00  0.00    -0.267 OA
ATOM      9  N   UNL     1       3.912 -10.767   8.141  1.00  0.00    -0.261 N 
ATOM     10  C   UNL     1       4.777  -9.740   8.337  1.00  0.00     0.332 A 
ATOM     11  O   UNL     1       6.012  -9.938   8.555  1.00  0.00    -0.247 OA
ATOM     12  N   UNL     1       4.281  -8.490   8.292  1.00  0.00    -0.279 N 
ATOM     13  C   UNL     1       5.206  -7.367   8.502  1.00  0.00     0.157 C 
ATOM     14  C   UNL     1       4.398 -12.129   8.180  1.00  0.00     0.159 C 
ENDROOT
TORSDOF 0
ENDMDL
