MODEL 1
REMARK VINA RESULT:    -6.639      0.000      0.000
REMARK INTER + INTRA:         -12.441
REMARK INTER:                 -10.908
REMARK INTRA:                  -1.534
REMARK UNBOUND:                -1.534
REMARK SMILES C#Cc1cccc(Nc2ncnc3cc(OCCOC)c(OCCOC)cc23)c1
REMARK SMILES IDX 9 1 10 2 11 3 12 4 13 5 14 6 15 7 21 8 27 9 28 10 8 11 7 13
REMARK SMILES IDX 3 14 4 15 29 16 5 17 6 18 2 19 1 20 22 21 23 22 24 23 25 24
REMARK SMILES IDX 26 25 16 26 17 27 18 28 19 29 20 30
REMARK H PARENT 8 12
ROOT
ATOM      1  C   UNL     1      57.072  38.699 125.925  1.00  0.00     0.141 A 
ATOM      2  N   UNL     1      56.500  37.499 125.799  1.00  0.00    -0.219 NA
ATOM      3  C   UNL     1      56.382  36.807 124.669  1.00  0.00     0.224 A 
ATOM      4  N   UNL     1      56.870  37.331 123.532  1.00  0.00    -0.236 NA
ATOM      5  C   UNL     1      57.468  38.544 123.564  1.00  0.00     0.080 A 
ATOM      6  C   UNL     1      57.962  39.065 122.389  1.00  0.00     0.079 A 
ATOM      7  C   UNL     1      58.585  40.293 122.333  1.00  0.00     0.163 A 
ATOM      8  C   UNL     1      58.712  41.036 123.539  1.00  0.00     0.162 A 
ATOM      9  C   UNL     1      58.201  40.468 124.687  1.00  0.00     0.064 A 
ATOM     10  C   UNL     1      57.582  39.244 124.735  1.00  0.00     0.047 A 
ENDROOT
BRANCH   1  11
ATOM     11  N   UNL     1      57.168  39.393 127.152  1.00  0.00    -0.340 N 
ATOM     12  H   UNL     1      58.071  39.334 127.675  1.00  0.00     0.168 HD
BRANCH  11  13
ATOM     13  C   UNL     1      56.158  40.171 127.759  1.00  0.00     0.041 A 
ATOM     14  C   UNL     1      55.088  42.348 127.936  1.00  0.00     0.026 A 
ATOM     15  C   UNL     1      54.202  41.867 128.867  1.00  0.00     0.017 A 
ATOM     16  C   UNL     1      56.042  41.520 127.395  1.00  0.00     0.043 A 
ATOM     17  C   UNL     1      54.283  40.566 129.244  1.00  0.00     0.003 A 
ATOM     18  C   UNL     1      55.258  39.728 128.690  1.00  0.00     0.026 A 
BRANCH  14  19
ATOM     19  C   UNL     1      55.009  43.728 127.529  1.00  0.00    -0.070 C 
ATOM     20  C   UNL     1      54.933  44.869 127.179  1.00  0.00     0.010 C 
ENDBRANCH  14  19
ENDBRANCH  11  13
ENDBRANCH   1  11
BRANCH   8  21
ATOM     21  O   UNL     1      59.327  42.236 123.422  1.00  0.00    -0.487 OA
BRANCH  21  22
ATOM     22  C   UNL     1      59.012  43.446 123.986  1.00  0.00     0.258 C 
BRANCH  22  23
ATOM     23  C   UNL     1      57.769  44.042 123.428  1.00  0.00     0.201 C 
BRANCH  23  24
ATOM     24  O   UNL     1      56.639  43.862 124.227  1.00  0.00    -0.381 OA
ATOM     25  C   UNL     1      55.638  43.129 123.640  1.00  0.00     0.195 C 
ENDBRANCH  23  24
ENDBRANCH  22  23
ENDBRANCH  21  22
ENDBRANCH   8  21
BRANCH   7  26
ATOM     26  O   UNL     1      59.095  40.865 121.222  1.00  0.00    -0.487 OA
BRANCH  26  27
ATOM     27  C   UNL     1      60.254  40.694 120.500  1.00  0.00     0.258 C 
BRANCH  27  28
ATOM     28  C   UNL     1      61.406  41.578 120.821  1.00  0.00     0.201 C 
BRANCH  28  29
ATOM     29  O   UNL     1      62.260  41.682 119.742  1.00  0.00    -0.381 OA
ATOM     30  C   UNL     1      63.035  40.574 119.473  1.00  0.00     0.195 C 
ENDBRANCH  28  29
ENDBRANCH  27  28
ENDBRANCH  26  27
ENDBRANCH   7  26
TORSDOF 11
ENDMDL
