MODEL 1
REMARK VINA RESULT:    -5.912      0.000      0.000
REMARK INTER + INTRA:         -11.066
REMARK INTER:                  -9.714
REMARK INTRA:                  -1.352
REMARK UNBOUND:                -1.352
REMARK SMILES C#Cc1cccc(Nc2ncnc3cc(OCCOC)c(OCCOC)cc23)c1
REMARK SMILES IDX 9 1 10 2 11 3 12 4 13 5 14 6 15 7 21 8 27 9 28 10 8 11 7 13
REMARK SMILES IDX 3 14 4 15 29 16 5 17 6 18 2 19 1 20 22 21 23 22 24 23 25 24
REMARK SMILES IDX 26 25 16 26 17 27 18 28 19 29 20 30
REMARK H PARENT 8 12
ROOT
ATOM      1  C   UNL     1       4.675 -50.985 121.662  1.00  0.00     0.141 A 
ATOM      2  N   UNL     1       5.837 -50.450 121.281  1.00  0.00    -0.219 NA
ATOM      3  C   UNL     1       6.666 -49.754 122.056  1.00  0.00     0.224 A 
ATOM      4  N   UNL     1       6.336 -49.552 123.342  1.00  0.00    -0.236 NA
ATOM      5  C   UNL     1       5.175 -50.059 123.817  1.00  0.00     0.080 A 
ATOM      6  C   UNL     1       4.853 -49.842 125.138  1.00  0.00     0.079 A 
ATOM      7  C   UNL     1       3.691 -50.323 125.702  1.00  0.00     0.163 A 
ATOM      8  C   UNL     1       2.804 -51.065 124.876  1.00  0.00     0.162 A 
ATOM      9  C   UNL     1       3.174 -51.255 123.561  1.00  0.00     0.064 A 
ATOM     10  C   UNL     1       4.334 -50.773 123.007  1.00  0.00     0.047 A 
ENDROOT
BRANCH   1  11
ATOM     11  N   UNL     1       3.831 -51.714 120.794  1.00  0.00    -0.340 N 
ATOM     12  H   UNL     1       4.220 -52.575 120.347  1.00  0.00     0.168 HD
BRANCH  11  13
ATOM     13  C   UNL     1       2.496 -51.400 120.460  1.00  0.00     0.041 A 
ATOM     14  C   UNL     1       0.209 -52.196 120.223  1.00  0.00     0.026 A 
ATOM     15  C   UNL     1      -0.213 -50.950 119.833  1.00  0.00     0.017 A 
ATOM     16  C   UNL     1       1.530 -52.415 120.529  1.00  0.00     0.043 A 
ATOM     17  C   UNL     1       0.692 -49.941 119.755  1.00  0.00     0.003 A 
ATOM     18  C   UNL     1       2.037 -50.172 120.067  1.00  0.00     0.026 A 
BRANCH  14  19
ATOM     19  C   UNL     1      -0.745 -53.273 120.309  1.00  0.00    -0.070 C 
ATOM     20  C   UNL     1      -1.523 -54.177 120.381  1.00  0.00     0.010 C 
ENDBRANCH  14  19
ENDBRANCH  11  13
ENDBRANCH   1  11
BRANCH   8  21
ATOM     21  O   UNL     1       1.676 -51.507 125.481  1.00  0.00    -0.487 OA
BRANCH  21  22
ATOM     22  C   UNL     1       0.417 -51.694 124.972  1.00  0.00     0.258 C 
BRANCH  22  23
ATOM     23  C   UNL     1      -0.410 -52.622 125.790  1.00  0.00     0.201 C 
BRANCH  23  24
ATOM     24  O   UNL     1      -0.970 -53.677 125.070  1.00  0.00    -0.381 OA
ATOM     25  C   UNL     1      -2.002 -53.315 124.241  1.00  0.00     0.195 C 
ENDBRANCH  23  24
ENDBRANCH  22  23
ENDBRANCH  21  22
ENDBRANCH   8  21
BRANCH   7  26
ATOM     26  O   UNL     1       3.312 -50.152 126.986  1.00  0.00    -0.487 OA
BRANCH  26  27
ATOM     27  C   UNL     1       2.930 -49.064 127.737  1.00  0.00     0.258 C 
BRANCH  27  28
ATOM     28  C   UNL     1       1.996 -48.088 127.116  1.00  0.00     0.201 C 
BRANCH  28  29
ATOM     29  O   UNL     1       0.751 -48.651 126.928  1.00  0.00    -0.381 OA
ATOM     30  C   UNL     1       0.132 -49.147 128.054  1.00  0.00     0.195 C 
ENDBRANCH  28  29
ENDBRANCH  27  28
ENDBRANCH  26  27
ENDBRANCH   7  26
TORSDOF 11
ENDMDL
