MODEL 1
REMARK VINA RESULT:    -7.123      0.000      0.000
REMARK INTER + INTRA:         -13.002
REMARK INTER:                 -11.704
REMARK INTRA:                  -1.298
REMARK UNBOUND:                -1.298
REMARK SMILES C#Cc1cccc(Nc2ncnc3cc(OCCOC)c(OCCOC)cc23)c1
REMARK SMILES IDX 9 1 10 2 11 3 12 4 13 5 14 6 15 7 21 8 27 9 28 10 8 11 7 13
REMARK SMILES IDX 3 14 4 15 29 16 5 17 6 18 2 19 1 20 22 21 23 22 24 23 25 24
REMARK SMILES IDX 26 25 16 26 17 27 18 28 19 29 20 30
REMARK H PARENT 8 12
ROOT
ATOM      1  C   UNL     1     -15.129  21.750  30.025  1.00  0.00     0.141 A 
ATOM      2  N   UNL     1     -16.078  20.839  30.251  1.00  0.00    -0.219 NA
ATOM      3  C   UNL     1     -15.883  19.531  30.404  1.00  0.00     0.224 A 
ATOM      4  N   UNL     1     -14.631  19.049  30.330  1.00  0.00    -0.236 NA
ATOM      5  C   UNL     1     -13.604  19.900  30.103  1.00  0.00     0.080 A 
ATOM      6  C   UNL     1     -12.328  19.388  30.030  1.00  0.00     0.079 A 
ATOM      7  C   UNL     1     -11.226  20.184  29.802  1.00  0.00     0.163 A 
ATOM      8  C   UNL     1     -11.433  21.581  29.637  1.00  0.00     0.162 A 
ATOM      9  C   UNL     1     -12.729  22.043  29.721  1.00  0.00     0.064 A 
ATOM     10  C   UNL     1     -13.822  21.243  29.948  1.00  0.00     0.047 A 
ENDROOT
BRANCH   1  11
ATOM     11  N   UNL     1     -15.394  23.129  29.867  1.00  0.00    -0.340 N 
ATOM     12  H   UNL     1     -15.275  23.746  30.703  1.00  0.00     0.168 HD
BRANCH  11  13
ATOM     13  C   UNL     1     -15.807  23.776  28.682  1.00  0.00     0.041 A 
ATOM     14  C   UNL     1     -17.417  25.258  27.620  1.00  0.00     0.026 A 
ATOM     15  C   UNL     1     -16.771  25.142  26.416  1.00  0.00     0.017 A 
ATOM     16  C   UNL     1     -16.947  24.592  28.726  1.00  0.00     0.043 A 
ATOM     17  C   UNL     1     -15.664  24.361  26.334  1.00  0.00     0.003 A 
ATOM     18  C   UNL     1     -15.191  23.684  27.464  1.00  0.00     0.026 A 
BRANCH  14  19
ATOM     19  C   UNL     1     -18.593  26.086  27.717  1.00  0.00    -0.070 C 
ATOM     20  C   UNL     1     -19.565  26.780  27.783  1.00  0.00     0.010 C 
ENDBRANCH  14  19
ENDBRANCH  11  13
ENDBRANCH   1  11
BRANCH   8  21
ATOM     21  O   UNL     1     -10.316  22.312  29.410  1.00  0.00    -0.487 OA
BRANCH  21  22
ATOM     22  C   UNL     1     -10.114  23.373  28.566  1.00  0.00     0.258 C 
BRANCH  22  23
ATOM     23  C   UNL     1     -10.318  23.025  27.134  1.00  0.00     0.201 C 
BRANCH  23  24
ATOM     24  O   UNL     1      -9.137  22.827  26.419  1.00  0.00    -0.381 OA
ATOM     25  C   UNL     1      -8.657  21.542  26.456  1.00  0.00     0.195 C 
ENDBRANCH  23  24
ENDBRANCH  22  23
ENDBRANCH  21  22
ENDBRANCH   8  21
BRANCH   7  26
ATOM     26  O   UNL     1      -9.950  19.754  29.720  1.00  0.00    -0.487 OA
BRANCH  26  27
ATOM     27  C   UNL     1      -8.977  19.455  30.646  1.00  0.00     0.258 C 
BRANCH  27  28
ATOM     28  C   UNL     1      -8.776  18.025  31.003  1.00  0.00     0.201 C 
BRANCH  28  29
ATOM     29  O   UNL     1      -9.846  17.547  31.730  1.00  0.00    -0.381 OA
ATOM     30  C   UNL     1     -10.002  18.069  32.996  1.00  0.00     0.195 C 
ENDBRANCH  28  29
ENDBRANCH  27  28
ENDBRANCH  26  27
ENDBRANCH   7  26
TORSDOF 11
ENDMDL
