MODEL 1
REMARK VINA RESULT:    -7.974      0.000      0.000
REMARK INTER + INTRA:         -14.325
REMARK INTER:                 -13.101
REMARK INTRA:                  -1.224
REMARK UNBOUND:                -1.224
REMARK SMILES C#Cc1cccc(Nc2ncnc3cc(OCCOC)c(OCCOC)cc23)c1
REMARK SMILES IDX 9 1 10 2 11 3 12 4 13 5 14 6 15 7 21 8 27 9 28 10 8 11 7 13
REMARK SMILES IDX 3 14 4 15 29 16 5 17 6 18 2 19 1 20 22 21 23 22 24 23 25 24
REMARK SMILES IDX 26 25 16 26 17 27 18 28 19 29 20 30
REMARK H PARENT 8 12
ROOT
ATOM      1  C   UNL     1       3.662  -9.467   8.789  1.00  0.00     0.141 A 
ATOM      2  N   UNL     1       4.145 -10.666   8.448  1.00  0.00    -0.219 NA
ATOM      3  C   UNL     1       3.469 -11.675   7.903  1.00  0.00     0.224 A 
ATOM      4  N   UNL     1       2.154 -11.475   7.663  1.00  0.00    -0.236 NA
ATOM      5  C   UNL     1       1.569 -10.290   7.973  1.00  0.00     0.080 A 
ATOM      6  C   UNL     1       0.225 -10.138   7.708  1.00  0.00     0.079 A 
ATOM      7  C   UNL     1      -0.455  -8.977   7.985  1.00  0.00     0.163 A 
ATOM      8  C   UNL     1       0.326  -7.953   8.562  1.00  0.00     0.162 A 
ATOM      9  C   UNL     1       1.656  -8.106   8.823  1.00  0.00     0.064 A 
ATOM     10  C   UNL     1       2.298  -9.273   8.534  1.00  0.00     0.047 A 
ENDROOT
BRANCH   1  11
ATOM     11  N   UNL     1       4.435  -8.440   9.364  1.00  0.00    -0.340 N 
ATOM     12  H   UNL     1       4.805  -8.584  10.332  1.00  0.00     0.168 HD
BRANCH  11  13
ATOM     13  C   UNL     1       4.776  -7.203   8.764  1.00  0.00     0.041 A 
ATOM     14  C   UNL     1       4.950  -4.798   8.665  1.00  0.00     0.026 A 
ATOM     15  C   UNL     1       5.518  -4.840   7.423  1.00  0.00     0.017 A 
ATOM     16  C   UNL     1       4.583  -5.973   9.329  1.00  0.00     0.043 A 
ATOM     17  C   UNL     1       5.721  -6.055   6.836  1.00  0.00     0.003 A 
ATOM     18  C   UNL     1       5.360  -7.205   7.491  1.00  0.00     0.026 A 
BRANCH  14  19
ATOM     19  C   UNL     1       4.734  -3.536   9.282  1.00  0.00    -0.070 C 
ATOM     20  C   UNL     1       4.556  -2.460   9.828  1.00  0.00     0.010 C 
ENDBRANCH  14  19
ENDBRANCH  11  13
ENDBRANCH   1  11
BRANCH   8  21
ATOM     21  O   UNL     1      -0.279  -6.749   8.875  1.00  0.00    -0.487 OA
BRANCH  21  22
ATOM     22  C   UNL     1      -0.103  -5.562   8.174  1.00  0.00     0.258 C 
BRANCH  22  23
ATOM     23  C   UNL     1      -1.274  -5.249   7.243  1.00  0.00     0.201 C 
BRANCH  23  24
ATOM     24  O   UNL     1      -1.124  -5.898   6.031  1.00  0.00    -0.381 OA
ATOM     25  C   UNL     1      -2.312  -5.837   5.304  1.00  0.00     0.195 C 
ENDBRANCH  23  24
ENDBRANCH  22  23
ENDBRANCH  21  22
ENDBRANCH   8  21
BRANCH   7  26
ATOM     26  O   UNL     1      -1.745  -8.696   7.778  1.00  0.00    -0.487 OA
BRANCH  26  27
ATOM     27  C   UNL     1      -2.923  -8.691   8.458  1.00  0.00     0.258 C 
BRANCH  27  28
ATOM     28  C   UNL     1      -4.055  -7.863   7.942  1.00  0.00     0.201 C 
BRANCH  28  29
ATOM     29  O   UNL     1      -5.282  -8.373   8.214  1.00  0.00    -0.381 OA
ATOM     30  C   UNL     1      -5.645  -8.376   9.543  1.00  0.00     0.195 C 
ENDBRANCH  28  29
ENDBRANCH  27  28
ENDBRANCH  26  27
ENDBRANCH   7  26
TORSDOF 11
ENDMDL
