MODEL 1
REMARK VINA RESULT:    -6.478      0.000      0.000
REMARK INTER + INTRA:         -12.192
REMARK INTER:                 -10.644
REMARK INTRA:                  -1.548
REMARK UNBOUND:                -1.548
REMARK SMILES C#Cc1cccc(Nc2ncnc3cc(OCCOC)c(OCCOC)cc23)c1
REMARK SMILES IDX 9 1 10 2 11 3 12 4 13 5 14 6 15 7 21 8 27 9 28 10 8 11 7 13
REMARK SMILES IDX 3 14 4 15 29 16 5 17 6 18 2 19 1 20 22 21 23 22 24 23 25 24
REMARK SMILES IDX 26 25 16 26 17 27 18 28 19 29 20 30
REMARK H PARENT 8 12
ROOT
ATOM      1  C   UNL     1     -52.339   0.518 -23.827  1.00  0.00     0.141 A 
ATOM      2  N   UNL     1     -53.445   0.985 -24.412  1.00  0.00    -0.219 NA
ATOM      3  C   UNL     1     -54.472   1.559 -23.791  1.00  0.00     0.224 A 
ATOM      4  N   UNL     1     -54.428   1.697 -22.456  1.00  0.00    -0.236 NA
ATOM      5  C   UNL     1     -53.345   1.253 -21.777  1.00  0.00     0.080 A 
ATOM      6  C   UNL     1     -53.318   1.404 -20.409  1.00  0.00     0.079 A 
ATOM      7  C   UNL     1     -52.254   0.979 -19.642  1.00  0.00     0.163 A 
ATOM      8  C   UNL     1     -51.155   0.364 -20.304  1.00  0.00     0.162 A 
ATOM      9  C   UNL     1     -51.233   0.239 -21.674  1.00  0.00     0.064 A 
ATOM     10  C   UNL     1     -52.296   0.665 -22.431  1.00  0.00     0.047 A 
ENDROOT
BRANCH   1  11
ATOM     11  N   UNL     1     -51.277  -0.087 -24.537  1.00  0.00    -0.340 N 
ATOM     12  H   UNL     1     -50.586   0.541 -25.006  1.00  0.00     0.168 HD
BRANCH  11  13
ATOM     13  C   UNL     1     -51.044  -1.472 -24.682  1.00  0.00     0.041 A 
ATOM     14  C   UNL     1     -49.660  -3.218 -25.658  1.00  0.00     0.026 A 
ATOM     15  C   UNL     1     -50.432  -4.192 -25.076  1.00  0.00     0.017 A 
ATOM     16  C   UNL     1     -49.959  -1.891 -25.465  1.00  0.00     0.043 A 
ATOM     17  C   UNL     1     -51.490  -3.826 -24.310  1.00  0.00     0.003 A 
ATOM     18  C   UNL     1     -51.790  -2.472 -24.119  1.00  0.00     0.026 A 
BRANCH  14  19
ATOM     19  C   UNL     1     -48.534  -3.598 -26.473  1.00  0.00    -0.070 C 
ATOM     20  C   UNL     1     -47.598  -3.897 -27.155  1.00  0.00     0.010 C 
ENDBRANCH  14  19
ENDBRANCH  11  13
ENDBRANCH   1  11
BRANCH   8  21
ATOM     21  O   UNL     1     -50.143  -0.037 -19.500  1.00  0.00    -0.487 OA
BRANCH  21  22
ATOM     22  C   UNL     1     -49.598  -1.283 -19.325  1.00  0.00     0.258 C 
BRANCH  22  23
ATOM     23  C   UNL     1     -50.551  -2.256 -18.727  1.00  0.00     0.201 C 
BRANCH  23  24
ATOM     24  O   UNL     1     -51.274  -2.998 -19.662  1.00  0.00    -0.381 OA
ATOM     25  C   UNL     1     -50.520  -3.507 -20.690  1.00  0.00     0.195 C 
ENDBRANCH  23  24
ENDBRANCH  22  23
ENDBRANCH  21  22
ENDBRANCH   8  21
BRANCH   7  26
ATOM     26  O   UNL     1     -52.156   1.096 -18.301  1.00  0.00    -0.487 OA
BRANCH  26  27
ATOM     27  C   UNL     1     -51.933   2.148 -17.443  1.00  0.00     0.258 C 
BRANCH  27  28
ATOM     28  C   UNL     1     -51.201   1.867 -16.179  1.00  0.00     0.201 C 
BRANCH  28  29
ATOM     29  O   UNL     1     -50.662   0.598 -16.197  1.00  0.00    -0.381 OA
ATOM     30  C   UNL     1     -49.294   0.516 -16.053  1.00  0.00     0.195 C 
ENDBRANCH  28  29
ENDBRANCH  27  28
ENDBRANCH  26  27
ENDBRANCH   7  26
TORSDOF 11
ENDMDL
