MODEL 1
REMARK VINA RESULT:    -6.771      0.000      0.000
REMARK INTER + INTRA:         -11.850
REMARK INTER:                  -9.938
REMARK INTRA:                  -1.912
REMARK UNBOUND:                -1.912
REMARK SMILES COc1cc2ncnc(Nc3ccc(F)c(Cl)c3)c2cc1OCCCN1CCOCC1
REMARK SMILES IDX 22 1 21 2 3 3 4 4 5 5 20 6 6 7 19 8 7 9 9 10 8 11 2 12 1 13
REMARK SMILES IDX 10 14 11 16 12 17 18 18 13 19 16 20 14 21 17 22 15 23 23 24
REMARK SMILES IDX 24 25 25 26 26 27 27 28 31 29 28 30 30 31 29 32
REMARK H PARENT 10 15
ROOT
ATOM      1  O   UNL     1       1.153 -47.362 124.185  1.00  0.00    -0.490 OA
ENDROOT
BRANCH   1   2
ATOM      2  C   UNL     1       0.683 -48.556 124.729  1.00  0.00     0.162 A 
ATOM      3  C   UNL     1       0.856 -48.782 126.079  1.00  0.00     0.162 A 
ATOM      4  C   UNL     1       0.385 -49.969 126.600  1.00  0.00     0.079 A 
ATOM      5  C   UNL     1      -0.237 -50.899 125.796  1.00  0.00     0.080 A 
ATOM      6  C   UNL     1       0.054 -49.504 123.935  1.00  0.00     0.064 A 
ATOM      7  N   UNL     1      -0.680 -52.046 126.357  1.00  0.00    -0.236 NA
ATOM      8  C   UNL     1      -0.421 -50.694 124.438  1.00  0.00     0.047 A 
ATOM      9  C   UNL     1      -1.298 -52.981 125.578  1.00  0.00     0.224 A 
ATOM     10  C   UNL     1      -1.056 -51.650 123.636  1.00  0.00     0.141 A 
ATOM     11  N   UNL     1      -1.459 -52.753 124.275  1.00  0.00    -0.219 NA
BRANCH   3  12
ATOM     12  O   UNL     1       1.488 -47.820 126.855  1.00  0.00    -0.493 OA
ATOM     13  C   UNL     1       2.698 -48.177 127.535  1.00  0.00     0.278 C 
ENDBRANCH   3  12
BRANCH  10  14
ATOM     14  N   UNL     1      -1.232 -51.415 122.251  1.00  0.00    -0.340 N 
ATOM     15  H   UNL     1      -1.732 -50.544 121.959  1.00  0.00     0.168 HD
BRANCH  14  16
ATOM     16  C   UNL     1      -0.794 -52.252 121.201  1.00  0.00     0.041 A 
ATOM     17  C   UNL     1      -1.327 -53.548 121.106  1.00  0.00     0.029 A 
ATOM     18  C   UNL     1       0.120 -51.917 120.244  1.00  0.00     0.049 A 
ATOM     19  C   UNL     1      -0.961 -54.428 120.123  1.00  0.00     0.043 A 
ATOM     20  C   UNL     1       0.493 -52.805 119.245  1.00  0.00     0.078 A 
ATOM     21  C   UNL     1      -0.039 -54.071 119.168  1.00  0.00     0.141 A 
ATOM     22  Cl  UNL     1       1.661 -52.331 118.051  1.00  0.00    -0.081 Cl
ATOM     23  F   UNL     1       0.352 -54.904 118.178  1.00  0.00    -0.205 F 
ENDBRANCH  14  16
ENDBRANCH  10  14
ENDBRANCH   1   2
BRANCH   1  24
ATOM     24  C   UNL     1       1.971 -47.324 123.033  1.00  0.00     0.231 C 
BRANCH  24  25
ATOM     25  C   UNL     1       3.357 -47.731 123.442  1.00  0.00     0.057 C 
BRANCH  25  26
ATOM     26  C   UNL     1       4.002 -48.667 122.452  1.00  0.00     0.088 C 
BRANCH  26  27
ATOM     27  N   UNL     1       4.773 -49.663 123.134  1.00  0.00    -0.299 NA
ATOM     28  C   UNL     1       4.451 -49.623 124.549  1.00  0.00     0.113 C 
ATOM     29  C   UNL     1       4.663 -50.988 122.614  1.00  0.00     0.113 C 
ATOM     30  C   UNL     1       3.871 -50.948 125.012  1.00  0.00     0.175 C 
ATOM     31  C   UNL     1       3.250 -51.481 122.833  1.00  0.00     0.175 C 
ATOM     32  O   UNL     1       2.866 -51.380 124.150  1.00  0.00    -0.379 OA
ENDBRANCH  26  27
ENDBRANCH  25  26
ENDBRANCH  24  25
ENDBRANCH   1  24
TORSDOF 8
ENDMDL
