MODEL 1
REMARK VINA RESULT:    -5.802      0.000      0.000
REMARK INTER + INTRA:          -7.890
REMARK INTER:                  -7.328
REMARK INTRA:                  -0.563
REMARK UNBOUND:                -0.563
REMARK SMILES CC(C)Cc1ccc(C(C)C(=O)O)cc1
REMARK SMILES IDX 5 1 6 2 7 3 8 4 14 5 15 6 4 7 2 8 1 9 3 10 9 11 10 12 11 13
REMARK SMILES IDX 12 14 13 15
REMARK H PARENT 13 16
ROOT
ATOM      1  C   UNL     1     -51.208  -0.226 -21.566  1.00  0.00    -0.048 A 
ATOM      2  C   UNL     1     -51.170  -1.552 -21.199  1.00  0.00     0.004 A 
ATOM      3  C   UNL     1     -51.387  -2.572 -22.104  1.00  0.00     0.005 A 
ATOM      4  C   UNL     1     -51.654  -2.256 -23.438  1.00  0.00    -0.034 A 
ATOM      5  C   UNL     1     -51.692  -0.924 -23.806  1.00  0.00     0.005 A 
ATOM      6  C   UNL     1     -51.473   0.065 -22.884  1.00  0.00     0.004 A 
ENDROOT
BRANCH   1   7
ATOM      7  C   UNL     1     -50.963   0.786 -20.522  1.00  0.00     0.038 C 
BRANCH   7   8
ATOM      8  C   UNL     1     -52.215   1.063 -19.683  1.00  0.00    -0.013 C 
ATOM      9  C   UNL     1     -51.744   1.314 -18.260  1.00  0.00     0.008 C 
ATOM     10  C   UNL     1     -52.931   2.280 -20.175  1.00  0.00     0.008 C 
ENDBRANCH   7   8
ENDBRANCH   1   7
BRANCH   4  11
ATOM     11  C   UNL     1     -51.898  -3.266 -24.473  1.00  0.00     0.126 C 
ATOM     12  C   UNL     1     -51.630  -2.745 -25.874  1.00  0.00     0.025 C 
BRANCH  11  13
ATOM     13  C   UNL     1     -51.145  -4.518 -24.281  1.00  0.00     0.310 C 
ATOM     14  O   UNL     1     -49.915  -4.643 -24.489  1.00  0.00    -0.252 OA
BRANCH  13  15
ATOM     15  O   UNL     1     -51.850  -5.631 -23.840  1.00  0.00    -0.481 OA
ATOM     16  H   UNL     1     -52.765  -5.601 -23.412  1.00  0.00     0.296 HD
ENDBRANCH  13  15
ENDBRANCH  11  13
ENDBRANCH   4  11
TORSDOF 5
ENDMDL
