MODEL 1
REMARK VINA RESULT:    -6.733      0.000      0.000
REMARK INTER + INTRA:          -9.180
REMARK INTER:                  -8.504
REMARK INTRA:                  -0.676
REMARK UNBOUND:                -0.676
REMARK SMILES CC(C)Cc1ccc(C(C)C(=O)O)cc1
REMARK SMILES IDX 5 1 6 2 7 3 8 4 14 5 15 6 4 7 2 8 1 9 3 10 9 11 10 12 11 13
REMARK SMILES IDX 12 14 13 15
REMARK H PARENT 13 16
ROOT
ATOM      1  C   UNL     1      -8.913  -6.612  -1.776  1.00  0.00    -0.048 A 
ATOM      2  C   UNL     1      -8.398  -7.585  -2.631  1.00  0.00     0.004 A 
ATOM      3  C   UNL     1      -8.500  -8.916  -2.269  1.00  0.00     0.005 A 
ATOM      4  C   UNL     1      -9.100  -9.277  -1.081  1.00  0.00    -0.034 A 
ATOM      5  C   UNL     1      -9.607  -8.308  -0.242  1.00  0.00     0.005 A 
ATOM      6  C   UNL     1      -9.514  -6.957  -0.589  1.00  0.00     0.004 A 
ENDROOT
BRANCH   1   7
ATOM      7  C   UNL     1      -8.773  -5.206  -2.222  1.00  0.00     0.038 C 
BRANCH   7   8
ATOM      8  C   UNL     1      -7.337  -4.908  -2.586  1.00  0.00    -0.013 C 
ATOM      9  C   UNL     1      -6.494  -4.598  -1.378  1.00  0.00     0.008 C 
ATOM     10  C   UNL     1      -7.295  -3.681  -3.476  1.00  0.00     0.008 C 
ENDBRANCH   7   8
ENDBRANCH   1   7
BRANCH   4  11
ATOM     11  C   UNL     1      -9.172 -10.738  -0.758  1.00  0.00     0.126 C 
ATOM     12  C   UNL     1      -9.732 -11.399  -2.007  1.00  0.00     0.025 C 
BRANCH  11  13
ATOM     13  C   UNL     1      -7.856 -11.283  -0.388  1.00  0.00     0.310 C 
ATOM     14  O   UNL     1      -7.329 -10.891   0.695  1.00  0.00    -0.252 OA
BRANCH  13  15
ATOM     15  O   UNL     1      -7.246 -12.186  -1.216  1.00  0.00    -0.481 OA
ATOM     16  H   UNL     1      -6.317 -11.990  -1.580  1.00  0.00     0.296 HD
ENDBRANCH  13  15
ENDBRANCH  11  13
ENDBRANCH   4  11
TORSDOF 5
ENDMDL
