MODEL 1
REMARK VINA RESULT:    -5.740      0.000      0.000
REMARK INTER + INTRA:          -7.807
REMARK INTER:                  -7.250
REMARK INTRA:                  -0.557
REMARK UNBOUND:                -0.557
REMARK SMILES CC(C)Cc1ccc(C(C)C(=O)O)cc1
REMARK SMILES IDX 5 1 6 2 7 3 8 4 14 5 15 6 4 7 2 8 1 9 3 10 9 11 10 12 11 13
REMARK SMILES IDX 12 14 13 15
REMARK H PARENT 13 16
ROOT
ATOM      1  C   UNL     1      -0.401 -52.158 125.208  1.00  0.00    -0.048 A 
ATOM      2  C   UNL     1      -1.253 -53.082 124.649  1.00  0.00     0.004 A 
ATOM      3  C   UNL     1      -1.485 -53.142 123.289  1.00  0.00     0.005 A 
ATOM      4  C   UNL     1      -0.836 -52.237 122.446  1.00  0.00    -0.034 A 
ATOM      5  C   UNL     1       0.021 -51.309 123.008  1.00  0.00     0.005 A 
ATOM      6  C   UNL     1       0.229 -51.276 124.361  1.00  0.00     0.004 A 
ENDROOT
BRANCH   1   7
ATOM      7  C   UNL     1      -0.223 -52.180 126.672  1.00  0.00     0.038 C 
BRANCH   7   8
ATOM      8  C   UNL     1      -1.161 -51.197 127.380  1.00  0.00    -0.013 C 
ATOM      9  C   UNL     1      -1.869 -51.977 128.476  1.00  0.00     0.008 C 
ATOM     10  C   UNL     1      -0.393 -50.077 128.005  1.00  0.00     0.008 C 
ENDBRANCH   7   8
ENDBRANCH   1   7
BRANCH   4  11
ATOM     11  C   UNL     1      -1.015 -52.219 120.991  1.00  0.00     0.126 C 
ATOM     12  C   UNL     1      -0.330 -51.036 120.331  1.00  0.00     0.025 C 
BRANCH  11  13
ATOM     13  C   UNL     1      -0.581 -53.455 120.316  1.00  0.00     0.310 C 
ATOM     14  O   UNL     1      -1.349 -54.389 119.987  1.00  0.00    -0.252 OA
BRANCH  13  15
ATOM     15  O   UNL     1       0.771 -53.590 120.028  1.00  0.00    -0.481 OA
ATOM     16  H   UNL     1       1.480 -53.856 120.699  1.00  0.00     0.296 HD
ENDBRANCH  13  15
ENDBRANCH  11  13
ENDBRANCH   4  11
TORSDOF 5
ENDMDL
