MODEL 1
REMARK VINA RESULT:    -7.371      0.000      0.000
REMARK INTER + INTRA:         -15.157
REMARK INTER:                 -12.972
REMARK INTRA:                  -2.185
REMARK UNBOUND:                -2.185
REMARK SMILES C=CC(=O)Nc1cc(Nc2ncc(C(=O)OC(C)C)c(-c3cn(C)c4ccccc34)n2)c(OC)cc1N(C)CCN(C)C
REMARK SMILES IDX 6 1 7 2 8 3 32 4 35 5 36 6 5 7 3 8 4 9 2 11 1 12 37 13 38 14
REMARK SMILES IDX 39 15 40 16 41 17 42 18 43 19 9 20 10 22 11 23 31 24 12 25
REMARK SMILES IDX 20 26 13 27 21 28 22 29 30 30 23 31 29 32 25 33 28 34 26 35
REMARK SMILES IDX 27 36 24 37 14 38 15 39 16 40 17 41 18 42 19 43 33 44 34 45
REMARK H PARENT 5 10 9 21
ROOT
ATOM      1  C   UNL     1       1.019 -50.756 126.031  1.00  0.00     0.067 A 
ATOM      2  C   UNL     1       1.423 -50.729 127.346  1.00  0.00     0.058 A 
ATOM      3  C   UNL     1       2.622 -50.218 127.788  1.00  0.00     0.086 A 
ATOM      4  C   UNL     1       3.472 -49.690 126.799  1.00  0.00     0.144 A 
ATOM      5  C   UNL     1       3.122 -49.688 125.469  1.00  0.00     0.076 A 
ATOM      6  C   UNL     1       1.904 -50.221 125.109  1.00  0.00     0.064 A 
ENDROOT
BRANCH   1   7
ATOM      7  N   UNL     1      -0.186 -51.281 125.539  1.00  0.00    -0.321 N 
ATOM      8  C   UNL     1      -0.561 -52.646 125.473  1.00  0.00     0.247 C 
ATOM      9  O   UNL     1       0.210 -53.546 125.879  1.00  0.00    -0.270 OA
ATOM     10  H   UNL     1      -0.900 -50.606 125.170  1.00  0.00     0.170 HD
BRANCH   8  11
ATOM     11  C   UNL     1      -1.846 -53.066 124.937  1.00  0.00     0.064 C 
ATOM     12  C   UNL     1      -1.999 -53.816 123.864  1.00  0.00     0.014 C 
ENDBRANCH   8  11
ENDBRANCH   1   7
BRANCH   6  13
ATOM     13  N   UNL     1       1.593 -50.166 123.702  1.00  0.00    -0.372 N 
ATOM     14  C   UNL     1       1.103 -48.883 123.178  1.00  0.00     0.143 C 
BRANCH  13  15
ATOM     15  C   UNL     1       1.735 -51.284 122.824  1.00  0.00     0.131 C 
BRANCH  15  16
ATOM     16  C   UNL     1       0.557 -51.586 121.962  1.00  0.00     0.105 C 
BRANCH  16  17
ATOM     17  N   UNL     1       0.836 -51.657 120.561  1.00  0.00    -0.308 NA
ATOM     18  C   UNL     1       0.045 -50.711 119.770  1.00  0.00     0.105 C 
ATOM     19  C   UNL     1       0.676 -52.998 120.029  1.00  0.00     0.105 C 
ENDBRANCH  16  17
ENDBRANCH  15  16
ENDBRANCH  13  15
ENDBRANCH   6  13
BRANCH   3  20
ATOM     20  N   UNL     1       3.060 -50.177 129.122  1.00  0.00    -0.321 N 
ATOM     21  H   UNL     1       3.953 -49.631 129.323  1.00  0.00     0.170 HD
BRANCH  20  22
ATOM     22  C   UNL     1       2.451 -50.778 130.244  1.00  0.00     0.227 A 
ATOM     23  N   UNL     1       3.086 -51.474 131.193  1.00  0.00    -0.220 NA
ATOM     24  N   UNL     1       1.110 -50.654 130.406  1.00  0.00    -0.212 NA
ATOM     25  C   UNL     1       2.460 -52.019 132.242  1.00  0.00     0.133 A 
ATOM     26  C   UNL     1       0.427 -51.175 131.432  1.00  0.00     0.093 A 
ATOM     27  C   UNL     1       1.076 -51.880 132.394  1.00  0.00     0.104 A 
BRANCH  26  28
ATOM     28  C   UNL     1      -1.000 -50.963 131.477  1.00  0.00     0.027 A 
ATOM     29  C   UNL     1      -1.783 -50.242 132.361  1.00  0.00     0.096 A 
ATOM     30  C   UNL     1      -1.911 -51.470 130.540  1.00  0.00     0.009 A 
ATOM     31  N   UNL     1      -3.068 -50.313 131.980  1.00  0.00    -0.350 N 
ATOM     32  C   UNL     1      -1.742 -52.263 129.422  1.00  0.00     0.011 A 
ATOM     33  C   UNL     1      -3.188 -51.056 130.869  1.00  0.00     0.048 A 
ATOM     34  C   UNL     1      -2.811 -52.658 128.619  1.00  0.00     0.001 A 
ATOM     35  C   UNL     1      -4.236 -51.454 130.068  1.00  0.00     0.027 A 
ATOM     36  C   UNL     1      -4.096 -52.241 128.952  1.00  0.00     0.002 A 
ATOM     37  C   UNL     1      -4.222 -49.692 132.636  1.00  0.00     0.149 C 
ENDBRANCH  26  28
BRANCH  27  38
ATOM     38  C   UNL     1       0.435 -52.508 133.539  1.00  0.00     0.342 C 
ATOM     39  O   UNL     1       0.441 -51.882 134.654  1.00  0.00    -0.246 OA
BRANCH  38  40
ATOM     40  O   UNL     1      -0.183 -53.726 133.536  1.00  0.00    -0.459 OA
BRANCH  40  41
ATOM     41  C   UNL     1      -0.431 -54.505 134.683  1.00  0.00     0.170 C 
ATOM     42  C   UNL     1      -1.663 -55.343 134.593  1.00  0.00     0.052 C 
ATOM     43  C   UNL     1       0.758 -55.410 134.923  1.00  0.00     0.052 C 
ENDBRANCH  40  41
ENDBRANCH  38  40
ENDBRANCH  27  38
ENDBRANCH  20  22
ENDBRANCH   3  20
BRANCH   4  44
ATOM     44  O   UNL     1       4.683 -49.162 127.155  1.00  0.00    -0.494 OA
ATOM     45  C   UNL     1       5.422 -48.395 126.248  1.00  0.00     0.278 C 
ENDBRANCH   4  44
TORSDOF 13
ENDMDL
