MODEL 1
REMARK VINA RESULT:    -7.729      0.000      0.000
REMARK INTER + INTRA:         -15.838
REMARK INTER:                 -13.603
REMARK INTRA:                  -2.235
REMARK UNBOUND:                -2.235
REMARK SMILES C=CC(=O)Nc1cc(Nc2ncc(C(=O)OC(C)C)c(-c3cn(C)c4ccccc34)n2)c(OC)cc1N(C)CCN(C)C
REMARK SMILES IDX 6 1 7 2 8 3 32 4 35 5 36 6 5 7 3 8 4 9 2 11 1 12 37 13 38 14
REMARK SMILES IDX 39 15 40 16 41 17 42 18 43 19 9 20 10 22 11 23 31 24 12 25
REMARK SMILES IDX 20 26 13 27 21 28 22 29 30 30 23 31 29 32 25 33 28 34 26 35
REMARK SMILES IDX 27 36 24 37 14 38 15 39 16 40 17 41 18 42 19 43 33 44 34 45
REMARK H PARENT 5 10 9 21
ROOT
ATOM      1  C   UNL     1      54.769  45.730 127.019  1.00  0.00     0.067 A 
ATOM      2  C   UNL     1      54.818  44.514 127.661  1.00  0.00     0.058 A 
ATOM      3  C   UNL     1      53.890  44.073 128.577  1.00  0.00     0.086 A 
ATOM      4  C   UNL     1      52.827  44.951 128.853  1.00  0.00     0.144 A 
ATOM      5  C   UNL     1      52.724  46.179 128.242  1.00  0.00     0.076 A 
ATOM      6  C   UNL     1      53.696  46.546 127.338  1.00  0.00     0.064 A 
ENDROOT
BRANCH   1   7
ATOM      7  N   UNL     1      55.701  46.223 126.092  1.00  0.00    -0.321 N 
ATOM      8  C   UNL     1      55.660  46.085 124.682  1.00  0.00     0.247 C 
ATOM      9  O   UNL     1      54.722  45.471 124.122  1.00  0.00    -0.270 OA
ATOM     10  H   UNL     1      56.528  46.751 126.463  1.00  0.00     0.170 HD
BRANCH   8  11
ATOM     11  C   UNL     1      56.692  46.644 123.824  1.00  0.00     0.064 C 
ATOM     12  C   UNL     1      57.798  46.016 123.478  1.00  0.00     0.014 C 
ENDBRANCH   8  11
ENDBRANCH   1   7
BRANCH   6  13
ATOM     13  N   UNL     1      53.513  47.836 126.719  1.00  0.00    -0.372 N 
ATOM     14  C   UNL     1      52.507  47.926 125.652  1.00  0.00     0.143 C 
BRANCH  13  15
ATOM     15  C   UNL     1      54.259  48.996 127.092  1.00  0.00     0.131 C 
BRANCH  15  16
ATOM     16  C   UNL     1      53.459  50.224 127.361  1.00  0.00     0.105 C 
BRANCH  16  17
ATOM     17  N   UNL     1      53.687  50.826 128.639  1.00  0.00    -0.308 NA
ATOM     18  C   UNL     1      54.861  51.700 128.659  1.00  0.00     0.105 C 
ATOM     19  C   UNL     1      53.782  49.847 129.706  1.00  0.00     0.105 C 
ENDBRANCH  16  17
ENDBRANCH  15  16
ENDBRANCH  13  15
ENDBRANCH   6  13
BRANCH   3  20
ATOM     20  N   UNL     1      53.915  42.838 129.247  1.00  0.00    -0.321 N 
ATOM     21  H   UNL     1      53.406  42.783 130.182  1.00  0.00     0.170 HD
BRANCH  20  22
ATOM     22  C   UNL     1      54.539  41.645 128.824  1.00  0.00     0.227 A 
ATOM     23  N   UNL     1      54.295  40.425 129.316  1.00  0.00    -0.220 NA
ATOM     24  N   UNL     1      55.463  41.704 127.834  1.00  0.00    -0.212 NA
ATOM     25  C   UNL     1      54.911  39.323 128.873  1.00  0.00     0.133 A 
ATOM     26  C   UNL     1      56.112  40.640 127.348  1.00  0.00     0.093 A 
ATOM     27  C   UNL     1      55.862  39.403 127.849  1.00  0.00     0.104 A 
BRANCH  26  28
ATOM     28  C   UNL     1      57.072  40.851 126.290  1.00  0.00     0.027 A 
ATOM     29  C   UNL     1      58.417  40.539 126.211  1.00  0.00     0.096 A 
ATOM     30  C   UNL     1      56.775  41.431 125.049  1.00  0.00     0.009 A 
ATOM     31  N   UNL     1      58.890  40.906 125.009  1.00  0.00    -0.350 N 
ATOM     32  C   UNL     1      55.605  41.946 124.525  1.00  0.00     0.011 A 
ATOM     33  C   UNL     1      57.915  41.456 124.269  1.00  0.00     0.048 A 
ATOM     34  C   UNL     1      55.537  42.487 123.243  1.00  0.00     0.001 A 
ATOM     35  C   UNL     1      57.834  41.995 123.003  1.00  0.00     0.027 A 
ATOM     36  C   UNL     1      56.686  42.512 122.458  1.00  0.00     0.002 A 
ATOM     37  C   UNL     1      60.260  40.755 124.513  1.00  0.00     0.149 C 
ENDBRANCH  26  28
BRANCH  27  38
ATOM     38  C   UNL     1      56.522  38.181 127.416  1.00  0.00     0.342 C 
ATOM     39  O   UNL     1      57.308  37.595 128.237  1.00  0.00    -0.246 OA
BRANCH  38  40
ATOM     40  O   UNL     1      56.379  37.591 126.192  1.00  0.00    -0.459 OA
BRANCH  40  41
ATOM     41  C   UNL     1      57.426  37.387 125.271  1.00  0.00     0.170 C 
ATOM     42  C   UNL     1      57.891  35.971 125.185  1.00  0.00     0.052 C 
ATOM     43  C   UNL     1      56.962  37.831 123.902  1.00  0.00     0.052 C 
ENDBRANCH  40  41
ENDBRANCH  38  40
ENDBRANCH  27  38
ENDBRANCH  20  22
ENDBRANCH   3  20
BRANCH   4  44
ATOM     44  O   UNL     1      51.862  44.588 129.753  1.00  0.00    -0.494 OA
ATOM     45  C   UNL     1      50.543  45.030 129.602  1.00  0.00     0.278 C 
ENDBRANCH   4  44
TORSDOF 13
ENDMDL
