MODEL 1
REMARK VINA RESULT:    -7.436      0.000      0.000
REMARK INTER + INTRA:         -14.797
REMARK INTER:                 -13.087
REMARK INTRA:                  -1.710
REMARK UNBOUND:                -1.710
REMARK SMILES C=CC(=O)Nc1cc(Nc2ncc(C(=O)OC(C)C)c(-c3cn(C)c4ccccc34)n2)c(OC)cc1N(C)CCN(C)C
REMARK SMILES IDX 6 1 7 2 8 3 32 4 35 5 36 6 5 7 3 8 4 9 2 11 1 12 37 13 38 14
REMARK SMILES IDX 39 15 40 16 41 17 42 18 43 19 9 20 10 22 11 23 31 24 12 25
REMARK SMILES IDX 20 26 13 27 21 28 22 29 30 30 23 31 29 32 25 33 28 34 26 35
REMARK SMILES IDX 27 36 24 37 14 38 15 39 16 40 17 41 18 42 19 43 33 44 34 45
REMARK H PARENT 5 10 9 21
ROOT
ATOM      1  C   UNL     1      -5.331  10.142  10.817  1.00  0.00     0.067 A 
ATOM      2  C   UNL     1      -4.954   9.968   9.512  1.00  0.00     0.058 A 
ATOM      3  C   UNL     1      -5.808   9.800   8.450  1.00  0.00     0.086 A 
ATOM      4  C   UNL     1      -7.174   9.813   8.771  1.00  0.00     0.144 A 
ATOM      5  C   UNL     1      -7.602   9.984  10.065  1.00  0.00     0.076 A 
ATOM      6  C   UNL     1      -6.698  10.148  11.084  1.00  0.00     0.064 A 
ENDROOT
BRANCH   1   7
ATOM      7  N   UNL     1      -4.475  10.321  11.920  1.00  0.00    -0.321 N 
ATOM      8  C   UNL     1      -3.694   9.322  12.546  1.00  0.00     0.247 C 
ATOM      9  O   UNL     1      -3.672   8.128  12.186  1.00  0.00    -0.270 OA
ATOM     10  H   UNL     1      -4.376  11.292  12.347  1.00  0.00     0.170 HD
BRANCH   8  11
ATOM     11  C   UNL     1      -2.838   9.666  13.700  1.00  0.00     0.064 C 
ATOM     12  C   UNL     1      -2.289   8.620  14.342  1.00  0.00     0.014 C 
ENDBRANCH   8  11
ENDBRANCH   1   7
BRANCH   6  13
ATOM     13  N   UNL     1      -7.209  10.311  12.405  1.00  0.00    -0.372 N 
ATOM     14  C   UNL     1      -7.747  11.629  12.767  1.00  0.00     0.143 C 
BRANCH  13  15
ATOM     15  C   UNL     1      -7.251   9.297  13.403  1.00  0.00     0.131 C 
BRANCH  15  16
ATOM     16  C   UNL     1      -7.677   9.757  14.774  1.00  0.00     0.105 C 
BRANCH  16  17
ATOM     17  N   UNL     1      -6.449   9.912  15.550  1.00  0.00    -0.308 NA
ATOM     18  C   UNL     1      -6.776  10.477  16.823  1.00  0.00     0.105 C 
ATOM     19  C   UNL     1      -5.774   8.650  15.587  1.00  0.00     0.105 C 
ENDBRANCH  16  17
ENDBRANCH  15  16
ENDBRANCH  13  15
ENDBRANCH   6  13
BRANCH   3  20
ATOM     20  N   UNL     1      -5.443   9.629   7.107  1.00  0.00    -0.321 N 
ATOM     21  H   UNL     1      -5.567  10.467   6.475  1.00  0.00     0.170 HD
BRANCH  20  22
ATOM     22  C   UNL     1      -4.931   8.467   6.495  1.00  0.00     0.227 A 
ATOM     23  N   UNL     1      -4.464   7.394   7.128  1.00  0.00    -0.220 NA
ATOM     24  N   UNL     1      -4.895   8.420   5.139  1.00  0.00    -0.212 NA
ATOM     25  C   UNL     1      -3.973   6.304   6.527  1.00  0.00     0.133 A 
ATOM     26  C   UNL     1      -4.416   7.357   4.477  1.00  0.00     0.093 A 
ATOM     27  C   UNL     1      -3.935   6.252   5.147  1.00  0.00     0.104 A 
BRANCH  26  28
ATOM     28  C   UNL     1      -4.425   7.425   3.023  1.00  0.00     0.027 A 
ATOM     29  C   UNL     1      -3.358   7.307   2.137  1.00  0.00     0.096 A 
ATOM     30  C   UNL     1      -5.534   7.661   2.205  1.00  0.00     0.009 A 
ATOM     31  N   UNL     1      -3.785   7.459   0.872  1.00  0.00    -0.350 N 
ATOM     32  C   UNL     1      -6.876   7.864   2.473  1.00  0.00     0.011 A 
ATOM     33  C   UNL     1      -5.121   7.678   0.877  1.00  0.00     0.048 A 
ATOM     34  C   UNL     1      -7.786   8.079   1.453  1.00  0.00     0.001 A 
ATOM     35  C   UNL     1      -6.018   7.893  -0.157  1.00  0.00     0.027 A 
ATOM     36  C   UNL     1      -7.348   8.093   0.125  1.00  0.00     0.002 A 
ATOM     37  C   UNL     1      -2.909   7.386  -0.306  1.00  0.00     0.149 C 
ENDBRANCH  26  28
BRANCH  27  38
ATOM     38  C   UNL     1      -3.432   5.061   4.493  1.00  0.00     0.342 C 
ATOM     39  O   UNL     1      -4.132   4.221   3.880  1.00  0.00    -0.246 OA
BRANCH  38  40
ATOM     40  O   UNL     1      -2.062   4.800   4.528  1.00  0.00    -0.459 OA
BRANCH  40  41
ATOM     41  C   UNL     1      -1.558   3.599   5.105  1.00  0.00     0.170 C 
ATOM     42  C   UNL     1      -0.809   3.954   6.355  1.00  0.00     0.052 C 
ATOM     43  C   UNL     1      -0.573   2.939   4.139  1.00  0.00     0.052 C 
ENDBRANCH  40  41
ENDBRANCH  38  40
ENDBRANCH  27  38
ENDBRANCH  20  22
ENDBRANCH   3  20
BRANCH   4  44
ATOM     44  O   UNL     1      -8.135   9.654   7.795  1.00  0.00    -0.494 OA
ATOM     45  C   UNL     1      -8.902  10.694   7.243  1.00  0.00     0.278 C 
ENDBRANCH   4  44
TORSDOF 13
ENDMDL
