MODEL 1
REMARK VINA RESULT:    -7.936      0.000      0.000
REMARK INTER + INTRA:         -15.777
REMARK INTER:                 -13.967
REMARK INTRA:                  -1.810
REMARK UNBOUND:                -1.810
REMARK SMILES C=CC(=O)Nc1cc(Nc2ncc(C(=O)OC(C)C)c(-c3cn(C)c4ccccc34)n2)c(OC)cc1N(C)CCN(C)C
REMARK SMILES IDX 6 1 7 2 8 3 32 4 35 5 36 6 5 7 3 8 4 9 2 11 1 12 37 13 38 14
REMARK SMILES IDX 39 15 40 16 41 17 42 18 43 19 9 20 10 22 11 23 31 24 12 25
REMARK SMILES IDX 20 26 13 27 21 28 22 29 30 30 23 31 29 32 25 33 28 34 26 35
REMARK SMILES IDX 27 36 24 37 14 38 15 39 16 40 17 41 18 42 19 43 33 44 34 45
REMARK H PARENT 5 10 9 21
ROOT
ATOM      1  C   UNL     1     -11.979  15.213  33.731  1.00  0.00     0.067 A 
ATOM      2  C   UNL     1     -11.002  16.085  33.309  1.00  0.00     0.058 A 
ATOM      3  C   UNL     1      -9.742  15.712  32.900  1.00  0.00     0.086 A 
ATOM      4  C   UNL     1      -9.465  14.333  32.926  1.00  0.00     0.144 A 
ATOM      5  C   UNL     1     -10.402  13.414  33.337  1.00  0.00     0.076 A 
ATOM      6  C   UNL     1     -11.640  13.870  33.732  1.00  0.00     0.064 A 
ENDROOT
BRANCH   1   7
ATOM      7  N   UNL     1     -13.269  15.553  34.169  1.00  0.00    -0.321 N 
ATOM      8  C   UNL     1     -14.417  15.763  33.365  1.00  0.00     0.247 C 
ATOM      9  O   UNL     1     -14.361  15.652  32.119  1.00  0.00    -0.270 OA
ATOM     10  H   UNL     1     -13.420  15.673  35.200  1.00  0.00     0.170 HD
BRANCH   8  11
ATOM     11  C   UNL     1     -15.705  16.113  33.942  1.00  0.00     0.064 C 
ATOM     12  C   UNL     1     -16.398  17.189  33.625  1.00  0.00     0.014 C 
ENDBRANCH   8  11
ENDBRANCH   1   7
BRANCH   6  13
ATOM     13  N   UNL     1     -12.580  12.850  34.129  1.00  0.00    -0.372 N 
ATOM     14  C   UNL     1     -13.186  12.049  33.056  1.00  0.00     0.143 C 
BRANCH  13  15
ATOM     15  C   UNL     1     -12.937  12.602  35.490  1.00  0.00     0.131 C 
BRANCH  15  16
ATOM     16  C   UNL     1     -11.836  12.734  36.485  1.00  0.00     0.105 C 
BRANCH  16  17
ATOM     17  N   UNL     1     -12.233  12.582  37.851  1.00  0.00    -0.308 NA
ATOM     18  C   UNL     1     -11.251  11.852  38.656  1.00  0.00     0.105 C 
ATOM     19  C   UNL     1     -13.538  11.962  37.984  1.00  0.00     0.105 C 
ENDBRANCH  16  17
ENDBRANCH  15  16
ENDBRANCH  13  15
ENDBRANCH   6  13
BRANCH   3  20
ATOM     20  N   UNL     1      -8.725  16.579  32.465  1.00  0.00    -0.321 N 
ATOM     21  H   UNL     1      -7.722  16.306  32.698  1.00  0.00     0.170 HD
BRANCH  20  22
ATOM     22  C   UNL     1      -8.875  17.783  31.744  1.00  0.00     0.227 A 
ATOM     23  N   UNL     1      -7.875  18.529  31.261  1.00  0.00    -0.220 NA
ATOM     24  N   UNL     1     -10.125  18.247  31.497  1.00  0.00    -0.212 NA
ATOM     25  C   UNL     1      -8.073  19.661  30.577  1.00  0.00     0.133 A 
ATOM     26  C   UNL     1     -10.388  19.371  30.820  1.00  0.00     0.093 A 
ATOM     27  C   UNL     1      -9.370  20.125  30.330  1.00  0.00     0.104 A 
BRANCH  26  28
ATOM     28  C   UNL     1     -11.769  19.745  30.631  1.00  0.00     0.027 A 
ATOM     29  C   UNL     1     -12.716  19.295  29.729  1.00  0.00     0.096 A 
ATOM     30  C   UNL     1     -12.453  20.687  31.412  1.00  0.00     0.009 A 
ATOM     31  N   UNL     1     -13.882  19.921  29.954  1.00  0.00    -0.350 N 
ATOM     32  C   UNL     1     -12.051  21.477  32.471  1.00  0.00     0.011 A 
ATOM     33  C   UNL     1     -13.762  20.782  30.977  1.00  0.00     0.048 A 
ATOM     34  C   UNL     1     -12.915  22.364  33.111  1.00  0.00     0.001 A 
ATOM     35  C   UNL     1     -14.606  21.662  31.618  1.00  0.00     0.027 A 
ATOM     36  C   UNL     1     -14.232  22.459  32.671  1.00  0.00     0.002 A 
ATOM     37  C   UNL     1     -15.140  19.739  29.227  1.00  0.00     0.149 C 
ENDBRANCH  26  28
BRANCH  27  38
ATOM     38  C   UNL     1      -9.536  21.373  29.601  1.00  0.00     0.342 C 
ATOM     39  O   UNL     1      -9.652  22.454  30.273  1.00  0.00    -0.246 OA
BRANCH  38  40
ATOM     40  O   UNL     1      -9.580  21.500  28.242  1.00  0.00    -0.459 OA
BRANCH  40  41
ATOM     41  C   UNL     1      -9.809  22.708  27.554  1.00  0.00     0.170 C 
ATOM     42  C   UNL     1      -9.101  22.803  26.243  1.00  0.00     0.052 C 
ATOM     43  C   UNL     1     -11.295  22.860  27.319  1.00  0.00     0.052 C 
ENDBRANCH  40  41
ENDBRANCH  38  40
ENDBRANCH  27  38
ENDBRANCH  20  22
ENDBRANCH   3  20
BRANCH   4  44
ATOM     44  O   UNL     1      -8.234  13.880  32.536  1.00  0.00    -0.494 OA
ATOM     45  C   UNL     1      -7.948  12.510  32.526  1.00  0.00     0.278 C 
ENDBRANCH   4  44
TORSDOF 13
ENDMDL
