MODEL 1
REMARK VINA RESULT:    -7.152      0.000      0.000
REMARK INTER + INTRA:         -13.059
REMARK INTER:                 -11.333
REMARK INTRA:                  -1.726
REMARK UNBOUND:                -1.726
REMARK SMILES C=CC(=O)Nc1cc(Nc2nccc(-c3cn(C)c4ccccc34)n2)c(OC)cc1N(C)CCN(C)C
REMARK SMILES IDX 6 1 7 2 8 3 26 4 29 5 30 6 5 7 3 8 4 9 2 11 1 12 31 13 32 14
REMARK SMILES IDX 33 15 34 16 35 17 36 18 37 19 9 20 10 22 11 23 25 24 12 25
REMARK SMILES IDX 14 26 13 27 15 28 16 29 24 30 17 31 23 32 19 33 22 34 20 35
REMARK SMILES IDX 21 36 18 37 27 38 28 39
REMARK H PARENT 5 10 9 21
ROOT
ATOM      1  C   UNL     1       1.023 -50.673 126.173  1.00  0.00     0.067 A 
ATOM      2  C   UNL     1       1.365 -50.627 127.497  1.00  0.00     0.058 A 
ATOM      3  C   UNL     1       2.541 -50.104 127.999  1.00  0.00     0.086 A 
ATOM      4  C   UNL     1       3.429 -49.590 127.031  1.00  0.00     0.144 A 
ATOM      5  C   UNL     1       3.114 -49.622 125.693  1.00  0.00     0.076 A 
ATOM      6  C   UNL     1       1.926 -50.156 125.267  1.00  0.00     0.064 A 
ENDROOT
BRANCH   1   7
ATOM      7  N   UNL     1      -0.179 -51.195 125.646  1.00  0.00    -0.321 N 
ATOM      8  C   UNL     1      -0.533 -52.555 125.544  1.00  0.00     0.247 C 
ATOM      9  O   UNL     1       0.205 -53.492 125.924  1.00  0.00    -0.270 OA
ATOM     10  H   UNL     1      -0.918 -50.514 125.284  1.00  0.00     0.170 HD
BRANCH   8  11
ATOM     11  C   UNL     1      -1.828 -52.953 124.966  1.00  0.00     0.064 C 
ATOM     12  C   UNL     1      -1.851 -53.829 123.955  1.00  0.00     0.014 C 
ENDBRANCH   8  11
ENDBRANCH   1   7
BRANCH   6  13
ATOM     13  N   UNL     1       1.689 -50.151 123.854  1.00  0.00    -0.372 N 
ATOM     14  C   UNL     1       1.103 -49.017 123.162  1.00  0.00     0.143 C 
BRANCH  13  15
ATOM     15  C   UNL     1       2.041 -51.301 123.057  1.00  0.00     0.131 C 
BRANCH  15  16
ATOM     16  C   UNL     1       1.579 -51.290 121.652  1.00  0.00     0.105 C 
BRANCH  16  17
ATOM     17  N   UNL     1       0.529 -52.193 121.330  1.00  0.00    -0.308 NA
ATOM     18  C   UNL     1      -0.776 -51.594 121.250  1.00  0.00     0.105 C 
ATOM     19  C   UNL     1       0.832 -52.705 119.985  1.00  0.00     0.105 C 
ENDBRANCH  16  17
ENDBRANCH  15  16
ENDBRANCH  13  15
ENDBRANCH   6  13
BRANCH   3  20
ATOM     20  N   UNL     1       2.905 -50.043 129.342  1.00  0.00    -0.321 N 
ATOM     21  H   UNL     1       3.670 -49.337 129.595  1.00  0.00     0.170 HD
BRANCH  20  22
ATOM     22  C   UNL     1       2.393 -50.792 130.422  1.00  0.00     0.227 A 
ATOM     23  N   UNL     1       3.136 -51.422 131.329  1.00  0.00    -0.221 NA
ATOM     24  N   UNL     1       1.043 -50.884 130.535  1.00  0.00    -0.213 NA
ATOM     25  C   UNL     1       2.574 -52.116 132.312  1.00  0.00     0.117 A 
ATOM     26  C   UNL     1       0.409 -51.575 131.512  1.00  0.00     0.078 A 
ATOM     27  C   UNL     1       1.206 -52.204 132.423  1.00  0.00     0.049 A 
BRANCH  26  28
ATOM     28  C   UNL     1      -1.034 -51.539 131.503  1.00  0.00     0.026 A 
ATOM     29  C   UNL     1      -1.767 -51.098 132.622  1.00  0.00     0.096 A 
ATOM     30  C   UNL     1      -1.978 -51.820 130.576  1.00  0.00     0.009 A 
ATOM     31  N   UNL     1      -3.083 -51.135 132.327  1.00  0.00    -0.350 N 
ATOM     32  C   UNL     1      -1.904 -52.265 129.286  1.00  0.00     0.011 A 
ATOM     33  C   UNL     1      -3.261 -51.575 131.074  1.00  0.00     0.048 A 
ATOM     34  C   UNL     1      -3.023 -52.469 128.509  1.00  0.00     0.001 A 
ATOM     35  C   UNL     1      -4.383 -51.779 130.298  1.00  0.00     0.027 A 
ATOM     36  C   UNL     1      -4.307 -52.228 129.001  1.00  0.00     0.002 A 
ATOM     37  C   UNL     1      -4.162 -50.763 133.205  1.00  0.00     0.149 C 
ENDBRANCH  26  28
ENDBRANCH  20  22
ENDBRANCH   3  20
BRANCH   4  38
ATOM     38  O   UNL     1       4.637 -49.045 127.439  1.00  0.00    -0.494 OA
ATOM     39  C   UNL     1       5.535 -48.591 126.448  1.00  0.00     0.278 C 
ENDBRANCH   4  38
TORSDOF 10
ENDMDL
