MODEL 1
REMARK VINA RESULT:    -7.947      0.000      0.000
REMARK INTER + INTRA:         -14.366
REMARK INTER:                 -12.593
REMARK INTRA:                  -1.773
REMARK UNBOUND:                -1.773
REMARK SMILES C=CC(=O)Nc1cc(Nc2nccc(-c3cn(C)c4ccccc34)n2)c(OC)cc1N(C)CCN(C)C
REMARK SMILES IDX 6 1 7 2 8 3 26 4 29 5 30 6 5 7 3 8 4 9 2 11 1 12 31 13 32 14
REMARK SMILES IDX 33 15 34 16 35 17 36 18 37 19 9 20 10 22 11 23 25 24 12 25
REMARK SMILES IDX 14 26 13 27 15 28 16 29 24 30 17 31 23 32 19 33 22 34 20 35
REMARK SMILES IDX 21 36 18 37 27 38 28 39
REMARK H PARENT 5 10 9 21
ROOT
ATOM      1  C   UNL     1      58.991  42.126 122.187  1.00  0.00     0.067 A 
ATOM      2  C   UNL     1      58.532  42.807 123.281  1.00  0.00     0.058 A 
ATOM      3  C   UNL     1      58.825  44.124 123.581  1.00  0.00     0.086 A 
ATOM      4  C   UNL     1      59.668  44.775 122.656  1.00  0.00     0.144 A 
ATOM      5  C   UNL     1      60.145  44.117 121.547  1.00  0.00     0.076 A 
ATOM      6  C   UNL     1      59.812  42.809 121.313  1.00  0.00     0.064 A 
ENDROOT
BRANCH   1   7
ATOM      7  N   UNL     1      58.692  40.784 121.863  1.00  0.00    -0.321 N 
ATOM      8  C   UNL     1      59.118  39.635 122.559  1.00  0.00     0.247 C 
ATOM      9  O   UNL     1      59.835  39.674 123.584  1.00  0.00    -0.270 OA
ATOM     10  H   UNL     1      58.080  40.587 121.011  1.00  0.00     0.170 HD
BRANCH   8  11
ATOM     11  C   UNL     1      58.728  38.291 122.100  1.00  0.00     0.064 C 
ATOM     12  C   UNL     1      57.461  37.890 122.254  1.00  0.00     0.014 C 
ENDBRANCH   8  11
ENDBRANCH   1   7
BRANCH   6  13
ATOM     13  N   UNL     1      60.362  42.205 120.136  1.00  0.00    -0.372 N 
ATOM     14  C   UNL     1      59.723  42.301 118.836  1.00  0.00     0.143 C 
BRANCH  13  15
ATOM     15  C   UNL     1      61.602  41.472 120.210  1.00  0.00     0.131 C 
BRANCH  15  16
ATOM     16  C   UNL     1      61.638  40.174 119.502  1.00  0.00     0.105 C 
BRANCH  16  17
ATOM     17  N   UNL     1      62.886  39.809 118.927  1.00  0.00    -0.308 NA
ATOM     18  C   UNL     1      63.055  38.398 118.704  1.00  0.00     0.105 C 
ATOM     19  C   UNL     1      62.923  40.443 117.600  1.00  0.00     0.105 C 
ENDBRANCH  16  17
ENDBRANCH  15  16
ENDBRANCH  13  15
ENDBRANCH   6  13
BRANCH   3  20
ATOM     20  N   UNL     1      58.365  44.836 124.686  1.00  0.00    -0.321 N 
ATOM     21  H   UNL     1      59.025  45.585 125.076  1.00  0.00     0.170 HD
BRANCH  20  22
ATOM     22  C   UNL     1      57.134  44.704 125.362  1.00  0.00     0.227 A 
ATOM     23  N   UNL     1      56.207  45.654 125.444  1.00  0.00    -0.221 NA
ATOM     24  N   UNL     1      56.886  43.521 125.982  1.00  0.00    -0.213 NA
ATOM     25  C   UNL     1      55.076  45.451 126.110  1.00  0.00     0.117 A 
ATOM     26  C   UNL     1      55.756  43.252 126.676  1.00  0.00     0.078 A 
ATOM     27  C   UNL     1      54.829  44.251 126.736  1.00  0.00     0.049 A 
BRANCH  26  28
ATOM     28  C   UNL     1      55.640  41.929 127.245  1.00  0.00     0.026 A 
ATOM     29  C   UNL     1      55.043  41.717 128.502  1.00  0.00     0.096 A 
ATOM     30  C   UNL     1      55.965  40.688 126.816  1.00  0.00     0.009 A 
ATOM     31  N   UNL     1      55.037  40.395 128.768  1.00  0.00    -0.350 N 
ATOM     32  C   UNL     1      56.548  40.229 125.669  1.00  0.00     0.011 A 
ATOM     33  C   UNL     1      55.596  39.720 127.755  1.00  0.00     0.048 A 
ATOM     34  C   UNL     1      56.770  38.889 125.437  1.00  0.00     0.001 A 
ATOM     35  C   UNL     1      55.818  38.378 127.525  1.00  0.00     0.027 A 
ATOM     36  C   UNL     1      56.406  37.917 126.371  1.00  0.00     0.002 A 
ATOM     37  C   UNL     1      54.514  39.768 129.954  1.00  0.00     0.149 C 
ENDBRANCH  26  28
ENDBRANCH  20  22
ENDBRANCH   3  20
BRANCH   4  38
ATOM     38  O   UNL     1      60.020  46.099 122.872  1.00  0.00    -0.494 OA
ATOM     39  C   UNL     1      59.507  47.080 121.996  1.00  0.00     0.278 C 
ENDBRANCH   4  38
TORSDOF 10
ENDMDL
