REMARK SMILES CC(=O)Oc1ccccc1C(=O)O
REMARK SMILES IDX 5 1 6 2 7 3 8 4 9 5 10 6 4 7 2 8 1 9 3 10 11 11 12 12 13 13
REMARK H PARENT 13 14
ROOT
ATOM      1  C   UNL     1      -0.184  -0.362  -0.468  1.00  0.00     0.145 A 
ATOM      2  C   UNL     1      -0.675  -1.635  -0.763  1.00  0.00     0.048 A 
ATOM      3  C   UNL     1      -1.982  -1.979  -0.448  1.00  0.00     0.004 A 
ATOM      4  C   UNL     1      -2.837  -1.064   0.171  1.00  0.00     0.001 A 
ATOM      5  C   UNL     1      -2.334   0.192   0.456  1.00  0.00     0.019 A 
ATOM      6  C   UNL     1      -1.034   0.538   0.144  1.00  0.00     0.102 A 
ENDROOT
BRANCH   1   7
ATOM      7  O   UNL     1       1.125  -0.065  -0.801  1.00  0.00    -0.426 OA
BRANCH   7   8
ATOM      8  C   UNL     1       2.197  -0.286   0.078  1.00  0.00     0.308 C 
ATOM      9  C   UNL     1       3.595   0.058  -0.345  1.00  0.00     0.139 C 
ATOM     10  O   UNL     1       2.027  -0.769   1.221  1.00  0.00    -0.252 OA
ENDBRANCH   7   8
ENDBRANCH   1   7
BRANCH   6  11
ATOM     11  C   UNL     1      -0.549   1.879   0.466  1.00  0.00     0.339 C 
ATOM     12  O   UNL     1       0.627   2.214   0.192  1.00  0.00    -0.246 OA
BRANCH  11  13
ATOM     13  O   UNL     1      -1.374   2.803   1.078  1.00  0.00    -0.478 OA
ATOM     14  H   UNL     1      -1.272   3.819   0.924  1.00  0.00     0.297 HD
ENDBRANCH  11  13
ENDBRANCH   6  11
TORSDOF 4
