REMARK SMILES Cn1c(=O)c2c(ncn2C)n(C)c1=O
REMARK SMILES IDX 10 1 9 2 8 3 7 4 6 5 5 6 3 7 4 8 2 9 13 10 14 11 11 12 12 13
REMARK SMILES IDX 1 14
REMARK H PARENT
ROOT
ATOM      1  C   UNL     1      -2.691  -1.918   0.143  1.00  0.00     0.151 C 
ATOM      2  N   UNL     1      -2.057  -0.600   0.063  1.00  0.00    -0.328 N 
ATOM      3  C   UNL     1      -2.710   0.577   0.018  1.00  0.00     0.202 A 
ATOM      4  N   UNL     1      -1.793   1.574  -0.052  1.00  0.00    -0.218 NA
ATOM      5  C   UNL     1      -0.575   1.018  -0.051  1.00  0.00     0.167 A 
ATOM      6  C   UNL     1      -0.737  -0.345   0.021  1.00  0.00     0.152 A 
ATOM      7  C   UNL     1       0.369  -1.158   0.038  1.00  0.00     0.282 A 
ATOM      8  O   UNL     1       0.180  -2.395   0.104  1.00  0.00    -0.267 OA
ATOM      9  N   UNL     1       1.606  -0.602  -0.018  1.00  0.00    -0.261 N 
ATOM     10  C   UNL     1       1.778   0.742  -0.089  1.00  0.00     0.332 A 
ATOM     11  O   UNL     1       2.934   1.266  -0.141  1.00  0.00    -0.247 OA
ATOM     12  N   UNL     1       0.675   1.512  -0.104  1.00  0.00    -0.279 N 
ATOM     13  C   UNL     1       0.846   2.970  -0.181  1.00  0.00     0.157 C 
ATOM     14  C   UNL     1       2.762  -1.472   0.001  1.00  0.00     0.159 C 
ENDROOT
TORSDOF 0
