REMARK SMILES C#Cc1cccc(Nc2ncnc3cc(OCCOC)c(OCCOC)cc23)c1
REMARK SMILES IDX 9 1 10 2 11 3 12 4 13 5 14 6 15 7 21 8 27 9 28 10 8 11 7 13
REMARK SMILES IDX 3 14 4 15 29 16 5 17 6 18 2 19 1 20 22 21 23 22 24 23 25 24
REMARK SMILES IDX 26 25 16 26 17 27 18 28 19 29 20 30
REMARK H PARENT 8 12
ROOT
ATOM      1  C   UNL     1       1.961  -0.761   0.296  1.00  0.00     0.141 A 
ATOM      2  N   UNL     1       2.559  -1.922   0.583  1.00  0.00    -0.219 NA
ATOM      3  C   UNL     1       1.970  -3.050   0.973  1.00  0.00     0.224 A 
ATOM      4  N   UNL     1       0.624  -3.030   1.095  1.00  0.00    -0.236 NA
ATOM      5  C   UNL     1      -0.076  -1.899   0.827  1.00  0.00     0.080 A 
ATOM      6  C   UNL     1      -1.447  -1.932   0.967  1.00  0.00     0.079 A 
ATOM      7  C   UNL     1      -2.241  -0.839   0.718  1.00  0.00     0.163 A 
ATOM      8  C   UNL     1      -1.547   0.320   0.309  1.00  0.00     0.162 A 
ATOM      9  C   UNL     1      -0.190   0.350   0.171  1.00  0.00     0.064 A 
ATOM     10  C   UNL     1       0.566  -0.755   0.427  1.00  0.00     0.047 A 
ENDROOT
BRANCH   1  11
ATOM     11  N   UNL     1       2.646   0.399  -0.113  1.00  0.00    -0.340 N 
ATOM     12  H   UNL     1       2.085   1.259  -0.314  1.00  0.00     0.168 HD
BRANCH  11  13
ATOM     13  C   UNL     1       4.045   0.536  -0.287  1.00  0.00     0.041 A 
ATOM     14  C   UNL     1       6.333  -0.232  -0.277  1.00  0.00     0.026 A 
ATOM     15  C   UNL     1       6.797   0.987  -0.683  1.00  0.00     0.017 A 
ATOM     16  C   UNL     1       4.966  -0.454  -0.081  1.00  0.00     0.043 A 
ATOM     17  C   UNL     1       5.899   1.993  -0.895  1.00  0.00     0.003 A 
ATOM     18  C   UNL     1       4.559   1.771  -0.702  1.00  0.00     0.026 A 
BRANCH  14  19
ATOM     19  C   UNL     1       7.262  -1.284  -0.053  1.00  0.00    -0.070 C 
ATOM     20  C   UNL     1       8.054  -2.188   0.157  1.00  0.00     0.010 C 
ENDBRANCH  14  19
ENDBRANCH  11  13
ENDBRANCH   1  11
BRANCH   8  21
ATOM     21  O   UNL     1      -2.269   1.469   0.038  1.00  0.00    -0.487 OA
BRANCH  21  22
ATOM     22  C   UNL     1      -1.719   2.677  -0.372  1.00  0.00     0.258 C 
BRANCH  22  23
ATOM     23  C   UNL     1      -2.775   3.760  -0.593  1.00  0.00     0.201 C 
BRANCH  23  24
ATOM     24  O   UNL     1      -2.187   4.943  -0.999  1.00  0.00    -0.381 OA
ATOM     25  C   UNL     1      -3.161   5.921  -1.195  1.00  0.00     0.195 C 
ENDBRANCH  23  24
ENDBRANCH  22  23
ENDBRANCH  21  22
ENDBRANCH   8  21
BRANCH   7  26
ATOM     26  O   UNL     1      -3.570  -0.735   0.809  1.00  0.00    -0.487 OA
BRANCH  26  27
ATOM     27  C   UNL     1      -4.648  -1.511   1.102  1.00  0.00     0.258 C 
BRANCH  27  28
ATOM     28  C   UNL     1      -4.990  -2.649   0.195  1.00  0.00     0.201 C 
BRANCH  28  29
ATOM     29  O   UNL     1      -4.011  -3.580   0.081  1.00  0.00    -0.381 OA
ATOM     30  C   UNL     1      -4.294  -4.644  -0.748  1.00  0.00     0.195 C 
ENDBRANCH  28  29
ENDBRANCH  27  28
ENDBRANCH  26  27
ENDBRANCH   7  26
TORSDOF 11
