MODEL 1
REMARK VINA RESULT:    -7.326      0.000      0.000
REMARK INTER + INTRA:         -13.093
REMARK INTER:                 -12.037
REMARK INTRA:                  -1.056
REMARK UNBOUND:                -1.056
REMARK SMILES C#Cc1cccc(Nc2ncnc3cc(OCCOC)c(OCCOC)cc23)c1
REMARK SMILES IDX 9 1 10 2 11 3 12 4 13 5 14 6 15 7 21 8 27 9 28 10 8 11 7 13
REMARK SMILES IDX 3 14 4 15 29 16 5 17 6 18 2 19 1 20 22 21 23 22 24 23 25 24
REMARK SMILES IDX 26 25 16 26 17 27 18 28 19 29 20 30
REMARK H PARENT 8 12
ROOT
ATOM      1  C   UNL     1       0.081  53.075 -20.612  1.00  0.00     0.141 A 
ATOM      2  N   UNL     1       0.944  54.090 -20.522  1.00  0.00    -0.219 NA
ATOM      3  C   UNL     1       1.635  54.617 -21.530  1.00  0.00     0.224 A 
ATOM      4  N   UNL     1       1.475  54.108 -22.763  1.00  0.00    -0.236 NA
ATOM      5  C   UNL     1       0.619  53.077 -22.950  1.00  0.00     0.080 A 
ATOM      6  C   UNL     1       0.468  52.568 -24.220  1.00  0.00     0.079 A 
ATOM      7  C   UNL     1      -0.383  51.519 -24.497  1.00  0.00     0.163 A 
ATOM      8  C   UNL     1      -1.120  50.953 -23.421  1.00  0.00     0.162 A 
ATOM      9  C   UNL     1      -0.933  51.501 -22.170  1.00  0.00     0.064 A 
ATOM     10  C   UNL     1      -0.084  52.546 -21.902  1.00  0.00     0.047 A 
ENDROOT
BRANCH   1  11
ATOM     11  N   UNL     1      -0.624  52.552 -19.505  1.00  0.00    -0.340 N 
ATOM     12  H   UNL     1      -1.666  52.642 -19.505  1.00  0.00     0.168 HD
BRANCH  11  13
ATOM     13  C   UNL     1      -0.065  51.907 -18.380  1.00  0.00     0.041 A 
ATOM     14  C   UNL     1       1.752  51.830 -16.765  1.00  0.00     0.026 A 
ATOM     15  C   UNL     1       1.187  50.746 -16.141  1.00  0.00     0.017 A 
ATOM     16  C   UNL     1       1.140  52.397 -17.857  1.00  0.00     0.043 A 
ATOM     17  C   UNL     1       0.020  50.245 -16.618  1.00  0.00     0.003 A 
ATOM     18  C   UNL     1      -0.597  50.826 -17.731  1.00  0.00     0.026 A 
BRANCH  14  19
ATOM     19  C   UNL     1       2.991  52.370 -16.266  1.00  0.00    -0.070 C 
ATOM     20  C   UNL     1       4.021  52.806 -15.840  1.00  0.00     0.010 C 
ENDBRANCH  14  19
ENDBRANCH  11  13
ENDBRANCH   1  11
BRANCH   8  21
ATOM     21  O   UNL     1      -1.934  49.924 -23.752  1.00  0.00    -0.487 OA
BRANCH  21  22
ATOM     22  C   UNL     1      -3.299  49.886 -23.884  1.00  0.00     0.258 C 
BRANCH  22  23
ATOM     23  C   UNL     1      -3.773  48.730 -24.693  1.00  0.00     0.201 C 
BRANCH  23  24
ATOM     24  O   UNL     1      -2.894  48.340 -25.704  1.00  0.00    -0.381 OA
ATOM     25  C   UNL     1      -3.212  48.820 -26.950  1.00  0.00     0.195 C 
ENDBRANCH  23  24
ENDBRANCH  22  23
ENDBRANCH  21  22
ENDBRANCH   8  21
BRANCH   7  26
ATOM     26  O   UNL     1      -0.583  50.972 -25.714  1.00  0.00    -0.487 OA
BRANCH  26  27
ATOM     27  C   UNL     1       0.233  50.687 -26.785  1.00  0.00     0.258 C 
BRANCH  27  28
ATOM     28  C   UNL     1       0.142  51.570 -27.978  1.00  0.00     0.201 C 
BRANCH  28  29
ATOM     29  O   UNL     1       0.513  52.861 -27.663  1.00  0.00    -0.381 OA
ATOM     30  C   UNL     1      -0.440  53.834 -27.866  1.00  0.00     0.195 C 
ENDBRANCH  28  29
ENDBRANCH  27  28
ENDBRANCH  26  27
ENDBRANCH   7  26
TORSDOF 11
ENDMDL
