MODEL 1
REMARK VINA RESULT:    -7.715      0.000      0.000
REMARK INTER + INTRA:         -13.177
REMARK INTER:                 -11.324
REMARK INTRA:                  -1.853
REMARK UNBOUND:                -1.853
REMARK SMILES COc1cc2ncnc(Nc3ccc(F)c(Cl)c3)c2cc1OCCCN1CCOCC1
REMARK SMILES IDX 22 1 21 2 3 3 4 4 5 5 20 6 6 7 19 8 7 9 9 10 8 11 2 12 1 13
REMARK SMILES IDX 10 14 11 16 12 17 18 18 13 19 16 20 14 21 17 22 15 23 23 24
REMARK SMILES IDX 24 25 25 26 26 27 27 28 31 29 28 30 30 31 29 32
REMARK H PARENT 10 15
ROOT
ATOM      1  O   UNL     1      -1.535  49.295 -19.336  1.00  0.00    -0.490 OA
ENDROOT
BRANCH   1   2
ATOM      2  C   UNL     1      -0.804  50.457 -19.581  1.00  0.00     0.162 A 
ATOM      3  C   UNL     1      -0.284  51.151 -18.508  1.00  0.00     0.162 A 
ATOM      4  C   UNL     1       0.435  52.298 -18.770  1.00  0.00     0.079 A 
ATOM      5  C   UNL     1       0.627  52.736 -20.061  1.00  0.00     0.080 A 
ATOM      6  C   UNL     1      -0.601  50.913 -20.876  1.00  0.00     0.064 A 
ATOM      7  N   UNL     1       1.340  53.866 -20.262  1.00  0.00    -0.236 NA
ATOM      8  C   UNL     1       0.114  52.056 -21.154  1.00  0.00     0.047 A 
ATOM      9  C   UNL     1       1.541  54.318 -21.535  1.00  0.00     0.224 A 
ATOM     10  C   UNL     1       0.319  52.515 -22.461  1.00  0.00     0.141 A 
ATOM     11  N   UNL     1       1.034  53.640 -22.564  1.00  0.00    -0.219 NA
BRANCH   3  12
ATOM     12  O   UNL     1      -0.500  50.676 -17.221  1.00  0.00    -0.493 OA
ATOM     13  C   UNL     1       0.286  51.220 -16.152  1.00  0.00     0.278 C 
ENDBRANCH   3  12
BRANCH  10  14
ATOM     14  N   UNL     1      -0.215  51.800 -23.560  1.00  0.00    -0.340 N 
ATOM     15  H   UNL     1      -0.836  50.982 -23.361  1.00  0.00     0.168 HD
BRANCH  14  16
ATOM     16  C   UNL     1       0.007  52.084 -24.925  1.00  0.00     0.041 A 
ATOM     17  C   UNL     1      -1.018  52.704 -25.659  1.00  0.00     0.029 A 
ATOM     18  C   UNL     1       1.149  51.808 -25.621  1.00  0.00     0.049 A 
ATOM     19  C   UNL     1      -0.892  53.016 -26.987  1.00  0.00     0.043 A 
ATOM     20  C   UNL     1       1.280  52.123 -26.966  1.00  0.00     0.078 A 
ATOM     21  C   UNL     1       0.266  52.730 -27.669  1.00  0.00     0.141 A 
ATOM     22  Cl  UNL     1       2.753  51.751 -27.807  1.00  0.00    -0.081 Cl
ATOM     23  F   UNL     1       0.437  53.019 -28.978  1.00  0.00    -0.205 F 
ENDBRANCH  14  16
ENDBRANCH  10  14
ENDBRANCH   1   2
BRANCH   1  24
ATOM     24  C   UNL     1      -1.279  48.082 -20.017  1.00  0.00     0.231 C 
BRANCH  24  25
ATOM     25  C   UNL     1      -2.556  47.651 -20.678  1.00  0.00     0.057 C 
BRANCH  25  26
ATOM     26  C   UNL     1      -2.550  47.901 -22.165  1.00  0.00     0.088 C 
BRANCH  26  27
ATOM     27  N   UNL     1      -3.815  48.425 -22.588  1.00  0.00    -0.299 NA
ATOM     28  C   UNL     1      -4.101  49.634 -21.836  1.00  0.00     0.113 C 
ATOM     29  C   UNL     1      -3.950  48.644 -23.992  1.00  0.00     0.113 C 
ATOM     30  C   UNL     1      -4.235  50.831 -22.761  1.00  0.00     0.175 C 
ATOM     31  C   UNL     1      -2.999  49.745 -24.408  1.00  0.00     0.175 C 
ATOM     32  O   UNL     1      -3.173  50.886 -23.661  1.00  0.00    -0.379 OA
ENDBRANCH  26  27
ENDBRANCH  25  26
ENDBRANCH  24  25
ENDBRANCH   1  24
TORSDOF 8
ENDMDL
