MODEL 1
REMARK VINA RESULT:    -7.766      0.000      0.000
REMARK INTER + INTRA:         -15.686
REMARK INTER:                 -13.669
REMARK INTRA:                  -2.017
REMARK UNBOUND:                -2.017
REMARK SMILES C=CC(=O)Nc1cc(Nc2ncc(C(=O)OC(C)C)c(-c3cn(C)c4ccccc34)n2)c(OC)cc1N(C)CCN(C)C
REMARK SMILES IDX 6 1 7 2 8 3 32 4 35 5 36 6 5 7 3 8 4 9 2 11 1 12 37 13 38 14
REMARK SMILES IDX 39 15 40 16 41 17 42 18 43 19 9 20 10 22 11 23 31 24 12 25
REMARK SMILES IDX 20 26 13 27 21 28 22 29 30 30 23 31 29 32 25 33 28 34 26 35
REMARK SMILES IDX 27 36 24 37 14 38 15 39 16 40 17 41 18 42 19 43 33 44 34 45
REMARK H PARENT 5 10 9 21
ROOT
ATOM      1  C   UNL     1       1.683 192.690  16.868  1.00  0.00     0.067 A 
ATOM      2  C   UNL     1       1.200 193.685  17.687  1.00  0.00     0.058 A 
ATOM      3  C   UNL     1       0.353 194.691  17.283  1.00  0.00     0.086 A 
ATOM      4  C   UNL     1      -0.029 194.673  15.930  1.00  0.00     0.144 A 
ATOM      5  C   UNL     1       0.420 193.705  15.063  1.00  0.00     0.076 A 
ATOM      6  C   UNL     1       1.267 192.733  15.547  1.00  0.00     0.064 A 
ENDROOT
BRANCH   1   7
ATOM      7  N   UNL     1       2.558 191.657  17.236  1.00  0.00    -0.321 N 
ATOM      8  C   UNL     1       3.960 191.747  17.416  1.00  0.00     0.247 C 
ATOM      9  O   UNL     1       4.563 192.833  17.249  1.00  0.00    -0.270 OA
ATOM     10  H   UNL     1       2.150 190.703  17.397  1.00  0.00     0.170 HD
BRANCH   8  11
ATOM     11  C   UNL     1       4.762 190.597  17.801  1.00  0.00     0.064 C 
ATOM     12  C   UNL     1       4.277 189.398  18.054  1.00  0.00     0.014 C 
ENDBRANCH   8  11
ENDBRANCH   1   7
BRANCH   6  13
ATOM     13  N   UNL     1       1.681 191.736  14.589  1.00  0.00    -0.372 N 
ATOM     14  C   UNL     1       0.798 190.575  14.413  1.00  0.00     0.143 C 
BRANCH  13  15
ATOM     15  C   UNL     1       2.888 191.833  13.831  1.00  0.00     0.131 C 
BRANCH  15  16
ATOM     16  C   UNL     1       2.790 192.580  12.546  1.00  0.00     0.105 C 
BRANCH  16  17
ATOM     17  N   UNL     1       3.307 193.914  12.580  1.00  0.00    -0.308 NA
ATOM     18  C   UNL     1       4.026 194.281  11.358  1.00  0.00     0.105 C 
ATOM     19  C   UNL     1       4.147 194.154  13.738  1.00  0.00     0.105 C 
ENDBRANCH  16  17
ENDBRANCH  15  16
ENDBRANCH  13  15
ENDBRANCH   6  13
BRANCH   3  20
ATOM     20  N   UNL     1      -0.155 195.719  18.097  1.00  0.00    -0.321 N 
ATOM     21  H   UNL     1      -0.737 196.473  17.619  1.00  0.00     0.170 HD
BRANCH  20  22
ATOM     22  C   UNL     1       0.013 195.872  19.489  1.00  0.00     0.227 A 
ATOM     23  N   UNL     1      -0.826 196.519  20.306  1.00  0.00    -0.220 NA
ATOM     24  N   UNL     1       1.103 195.324  20.082  1.00  0.00    -0.212 NA
ATOM     25  C   UNL     1      -0.622 196.629  21.624  1.00  0.00     0.133 A 
ATOM     26  C   UNL     1       1.361 195.399  21.392  1.00  0.00     0.093 A 
ATOM     27  C   UNL     1       0.508 196.056  22.218  1.00  0.00     0.104 A 
BRANCH  26  28
ATOM     28  C   UNL     1       2.561 194.767  21.887  1.00  0.00     0.027 A 
ATOM     29  C   UNL     1       3.603 195.268  22.648  1.00  0.00     0.096 A 
ATOM     30  C   UNL     1       2.891 193.419  21.690  1.00  0.00     0.009 A 
ATOM     31  N   UNL     1       4.491 194.290  22.888  1.00  0.00    -0.350 N 
ATOM     32  C   UNL     1       2.250 192.399  21.014  1.00  0.00     0.011 A 
ATOM     33  C   UNL     1       4.091 193.142  22.319  1.00  0.00     0.048 A 
ATOM     34  C   UNL     1       2.771 191.109  20.943  1.00  0.00     0.001 A 
ATOM     35  C   UNL     1       4.595 191.863  22.240  1.00  0.00     0.027 A 
ATOM     36  C   UNL     1       3.979 190.832  21.575  1.00  0.00     0.002 A 
ATOM     37  C   UNL     1       5.736 194.393  23.654  1.00  0.00     0.149 C 
ENDBRANCH  26  28
BRANCH  27  38
ATOM     38  C   UNL     1       0.698 196.221  23.652  1.00  0.00     0.342 C 
ATOM     39  O   UNL     1       0.947 197.394  24.097  1.00  0.00    -0.246 OA
BRANCH  38  40
ATOM     40  O   UNL     1       0.636 195.224  24.583  1.00  0.00    -0.459 OA
BRANCH  40  41
ATOM     41  C   UNL     1      -0.421 195.042  25.497  1.00  0.00     0.170 C 
ATOM     42  C   UNL     1      -0.511 196.108  26.539  1.00  0.00     0.052 C 
ATOM     43  C   UNL     1      -1.724 194.997  24.731  1.00  0.00     0.052 C 
ENDBRANCH  40  41
ENDBRANCH  38  40
ENDBRANCH  27  38
ENDBRANCH  20  22
ENDBRANCH   3  20
BRANCH   4  44
ATOM     44  O   UNL     1      -0.869 195.640  15.448  1.00  0.00    -0.494 OA
ATOM     45  C   UNL     1      -2.234 195.381  15.281  1.00  0.00     0.278 C 
ENDBRANCH   4  44
TORSDOF 13
ENDMDL
