MODEL 1
REMARK VINA RESULT:    -7.637      0.000      0.000
REMARK INTER + INTRA:         -14.016
REMARK INTER:                 -12.101
REMARK INTRA:                  -1.915
REMARK UNBOUND:                -1.915
REMARK SMILES C=CC(=O)Nc1cc(Nc2nccc(-c3cn(C)c4ccccc34)n2)c(OC)cc1N(C)CCN(C)C
REMARK SMILES IDX 6 1 7 2 8 3 26 4 29 5 30 6 5 7 3 8 4 9 2 11 1 12 31 13 32 14
REMARK SMILES IDX 33 15 34 16 35 17 36 18 37 19 9 20 10 22 11 23 25 24 12 25
REMARK SMILES IDX 14 26 13 27 15 28 16 29 24 30 17 31 23 32 19 33 22 34 20 35
REMARK SMILES IDX 21 36 18 37 27 38 28 39
REMARK H PARENT 5 10 9 21
ROOT
ATOM      1  C   UNL     1       3.207 190.945  19.754  1.00  0.00     0.067 A 
ATOM      2  C   UNL     1       2.091 191.670  19.438  1.00  0.00     0.058 A 
ATOM      3  C   UNL     1       2.028 192.656  18.472  1.00  0.00     0.086 A 
ATOM      4  C   UNL     1       3.236 192.898  17.784  1.00  0.00     0.144 A 
ATOM      5  C   UNL     1       4.374 192.185  18.080  1.00  0.00     0.076 A 
ATOM      6  C   UNL     1       4.363 191.220  19.052  1.00  0.00     0.064 A 
ENDROOT
BRANCH   1   7
ATOM      7  N   UNL     1       3.284 189.929  20.733  1.00  0.00    -0.321 N 
ATOM      8  C   UNL     1       3.444 190.107  22.122  1.00  0.00     0.247 C 
ATOM      9  O   UNL     1       3.538 191.230  22.668  1.00  0.00    -0.270 OA
ATOM     10  H   UNL     1       3.213 188.911  20.420  1.00  0.00     0.170 HD
BRANCH   8  11
ATOM     11  C   UNL     1       3.511 188.946  23.025  1.00  0.00     0.064 C 
ATOM     12  C   UNL     1       3.404 189.139  24.345  1.00  0.00     0.014 C 
ENDBRANCH   8  11
ENDBRANCH   1   7
BRANCH   6  13
ATOM     13  N   UNL     1       5.598 190.536  19.294  1.00  0.00    -0.372 N 
ATOM     14  C   UNL     1       6.005 189.365  18.538  1.00  0.00     0.143 C 
BRANCH  13  15
ATOM     15  C   UNL     1       6.498 191.007  20.318  1.00  0.00     0.131 C 
BRANCH  15  16
ATOM     16  C   UNL     1       6.289 192.396  20.783  1.00  0.00     0.105 C 
BRANCH  16  17
ATOM     17  N   UNL     1       7.203 192.872  21.764  1.00  0.00    -0.308 NA
ATOM     18  C   UNL     1       6.790 192.655  23.124  1.00  0.00     0.105 C 
ATOM     19  C   UNL     1       8.438 192.094  21.579  1.00  0.00     0.105 C 
ENDBRANCH  16  17
ENDBRANCH  15  16
ENDBRANCH  13  15
ENDBRANCH   6  13
BRANCH   3  20
ATOM     20  N   UNL     1       0.902 193.401  18.131  1.00  0.00    -0.321 N 
ATOM     21  H   UNL     1       0.381 193.096  17.246  1.00  0.00     0.170 HD
BRANCH  20  22
ATOM     22  C   UNL     1       0.351 194.511  18.804  1.00  0.00     0.227 A 
ATOM     23  N   UNL     1      -0.428 195.431  18.240  1.00  0.00    -0.221 NA
ATOM     24  N   UNL     1       0.649 194.654  20.121  1.00  0.00    -0.213 NA
ATOM     25  C   UNL     1      -0.899 196.454  18.944  1.00  0.00     0.117 A 
ATOM     26  C   UNL     1       0.202 195.673  20.893  1.00  0.00     0.078 A 
ATOM     27  C   UNL     1      -0.595 196.593  20.279  1.00  0.00     0.049 A 
BRANCH  26  28
ATOM     28  C   UNL     1       0.586 195.652  22.285  1.00  0.00     0.026 A 
ATOM     29  C   UNL     1      -0.364 195.787  23.315  1.00  0.00     0.096 A 
ATOM     30  C   UNL     1       1.761 195.483  22.935  1.00  0.00     0.009 A 
ATOM     31  N   UNL     1       0.262 195.697  24.506  1.00  0.00    -0.350 N 
ATOM     32  C   UNL     1       3.039 195.281  22.499  1.00  0.00     0.011 A 
ATOM     33  C   UNL     1       1.576 195.510  24.321  1.00  0.00     0.048 A 
ATOM     34  C   UNL     1       4.099 195.114  23.364  1.00  0.00     0.001 A 
ATOM     35  C   UNL     1       2.635 195.344  25.189  1.00  0.00     0.027 A 
ATOM     36  C   UNL     1       3.921 195.142  24.748  1.00  0.00     0.002 A 
ATOM     37  C   UNL     1      -0.359 195.785  25.802  1.00  0.00     0.149 C 
ENDBRANCH  26  28
ENDBRANCH  20  22
ENDBRANCH   3  20
BRANCH   4  38
ATOM     38  O   UNL     1       3.272 193.870  16.796  1.00  0.00    -0.494 OA
ATOM     39  C   UNL     1       3.772 193.515  15.524  1.00  0.00     0.278 C 
ENDBRANCH   4  38
TORSDOF 10
ENDMDL
