MODEL 1
REMARK VINA RESULT:    -7.976      0.000      0.000
REMARK INTER + INTRA:         -14.585
REMARK INTER:                 -12.638
REMARK INTRA:                  -1.947
REMARK UNBOUND:                -1.947
REMARK SMILES C=CC(=O)Nc1cc(Nc2nccc(-c3cn(C)c4ccccc34)n2)c(OC)cc1N(C)CCN(C)C
REMARK SMILES IDX 6 1 7 2 8 3 26 4 29 5 30 6 5 7 3 8 4 9 2 11 1 12 31 13 32 14
REMARK SMILES IDX 33 15 34 16 35 17 36 18 37 19 9 20 10 22 11 23 25 24 12 25
REMARK SMILES IDX 14 26 13 27 15 28 16 29 24 30 17 31 23 32 19 33 22 34 20 35
REMARK SMILES IDX 21 36 18 37 27 38 28 39
REMARK H PARENT 5 10 9 21
ROOT
ATOM      1  C   UNL     1      -3.882  50.210 -21.953  1.00  0.00     0.067 A 
ATOM      2  C   UNL     1      -2.725  50.857 -21.614  1.00  0.00     0.058 A 
ATOM      3  C   UNL     1      -2.342  51.184 -20.328  1.00  0.00     0.086 A 
ATOM      4  C   UNL     1      -3.247  50.800 -19.317  1.00  0.00     0.144 A 
ATOM      5  C   UNL     1      -4.419  50.149 -19.626  1.00  0.00     0.076 A 
ATOM      6  C   UNL     1      -4.734  49.856 -20.927  1.00  0.00     0.064 A 
ENDROOT
BRANCH   1   7
ATOM      7  N   UNL     1      -4.283  49.862 -23.262  1.00  0.00    -0.321 N 
ATOM      8  C   UNL     1      -3.729  48.850 -24.071  1.00  0.00     0.247 C 
ATOM      9  O   UNL     1      -2.783  48.115 -23.708  1.00  0.00    -0.270 OA
ATOM     10  H   UNL     1      -5.090  50.399 -23.710  1.00  0.00     0.170 HD
BRANCH   8  11
ATOM     11  C   UNL     1      -4.252  48.601 -25.425  1.00  0.00     0.064 C 
ATOM     12  C   UNL     1      -3.393  48.426 -26.435  1.00  0.00     0.014 C 
ENDBRANCH   8  11
ENDBRANCH   1   7
BRANCH   6  13
ATOM     13  N   UNL     1      -5.978  49.182 -21.151  1.00  0.00    -0.372 N 
ATOM     14  C   UNL     1      -7.140  49.848 -21.712  1.00  0.00     0.143 C 
BRANCH  13  15
ATOM     15  C   UNL     1      -6.113  47.784 -20.823  1.00  0.00     0.131 C 
BRANCH  15  16
ATOM     16  C   UNL     1      -4.979  46.911 -21.201  1.00  0.00     0.105 C 
BRANCH  16  17
ATOM     17  N   UNL     1      -4.171  46.436 -20.131  1.00  0.00    -0.308 NA
ATOM     18  C   UNL     1      -4.123  45.004 -20.005  1.00  0.00     0.105 C 
ATOM     19  C   UNL     1      -2.799  46.870 -20.436  1.00  0.00     0.105 C 
ENDBRANCH  16  17
ENDBRANCH  15  16
ENDBRANCH  13  15
ENDBRANCH   6  13
BRANCH   3  20
ATOM     20  N   UNL     1      -1.167  51.837 -19.962  1.00  0.00    -0.321 N 
ATOM     21  H   UNL     1      -0.899  51.787 -18.926  1.00  0.00     0.170 HD
BRANCH  20  22
ATOM     22  C   UNL     1      -0.275  52.558 -20.782  1.00  0.00     0.227 A 
ATOM     23  N   UNL     1       0.636  53.420 -20.339  1.00  0.00    -0.221 NA
ATOM     24  N   UNL     1      -0.363  52.364 -22.123  1.00  0.00    -0.213 NA
ATOM     25  C   UNL     1       1.433  54.068 -21.181  1.00  0.00     0.117 A 
ATOM     26  C   UNL     1       0.418  52.992 -23.034  1.00  0.00     0.078 A 
ATOM     27  C   UNL     1       1.340  53.866 -22.539  1.00  0.00     0.049 A 
BRANCH  26  28
ATOM     28  C   UNL     1       0.213  52.642 -24.420  1.00  0.00     0.026 A 
ATOM     29  C   UNL     1       1.296  52.409 -25.288  1.00  0.00     0.096 A 
ATOM     30  C   UNL     1      -0.881  52.419 -25.184  1.00  0.00     0.009 A 
ATOM     31  N   UNL     1       0.820  52.068 -26.503  1.00  0.00    -0.350 N 
ATOM     32  C   UNL     1      -2.220  52.462 -24.916  1.00  0.00     0.011 A 
ATOM     33  C   UNL     1      -0.520  52.061 -26.486  1.00  0.00     0.048 A 
ATOM     34  C   UNL     1      -3.174  52.175 -25.868  1.00  0.00     0.001 A 
ATOM     35  C   UNL     1      -1.473  51.774 -27.441  1.00  0.00     0.027 A 
ATOM     36  C   UNL     1      -2.820  51.819 -27.171  1.00  0.00     0.002 A 
ATOM     37  C   UNL     1       1.606  51.751 -27.667  1.00  0.00     0.149 C 
ENDBRANCH  26  28
ENDBRANCH  20  22
ENDBRANCH   3  20
BRANCH   4  38
ATOM     38  O   UNL     1      -2.950  51.086 -17.993  1.00  0.00    -0.494 OA
ATOM     39  C   UNL     1      -2.759  50.008 -17.102  1.00  0.00     0.278 C 
ENDBRANCH   4  38
TORSDOF 10
ENDMDL
