REMARK SMILES C#Cc1cccc(Nc2ncnc3cc(OCCOC)c(OCCOC)cc23)c1
REMARK SMILES IDX 9 1 10 2 11 3 12 4 13 5 14 6 15 7 21 8 27 9 28 10 8 11 7 13
REMARK SMILES IDX 3 14 4 15 29 16 5 17 6 18 2 19 1 20 22 21 23 22 24 23 25 24
REMARK SMILES IDX 26 25 16 26 17 27 18 28 19 29 20 30
REMARK H PARENT 8 12
ROOT
ATOM      1  C   UNL     1       1.907   1.263  -0.511  1.00  0.00     0.141 A 
ATOM      2  N   UNL     1       2.348   2.436  -0.972  1.00  0.00    -0.219 NA
ATOM      3  C   UNL     1       1.588   3.468  -1.331  1.00  0.00     0.224 A 
ATOM      4  N   UNL     1       0.253   3.355  -1.235  1.00  0.00    -0.236 NA
ATOM      5  C   UNL     1      -0.285   2.201  -0.777  1.00  0.00     0.080 A 
ATOM      6  C   UNL     1      -1.655   2.104  -0.685  1.00  0.00     0.079 A 
ATOM      7  C   UNL     1      -2.284   0.965  -0.229  1.00  0.00     0.163 A 
ATOM      8  C   UNL     1      -1.474  -0.139   0.154  1.00  0.00     0.162 A 
ATOM      9  C   UNL     1      -0.108   0.011   0.044  1.00  0.00     0.064 A 
ATOM     10  C   UNL     1       0.511   1.149  -0.411  1.00  0.00     0.047 A 
ENDROOT
BRANCH   1  11
ATOM     11  N   UNL     1       2.761   0.198  -0.146  1.00  0.00    -0.340 N 
ATOM     12  H   UNL     1       2.319  -0.684   0.199  1.00  0.00     0.168 HD
BRANCH  11  13
ATOM     13  C   UNL     1       4.172   0.196  -0.199  1.00  0.00     0.041 A 
ATOM     14  C   UNL     1       6.227  -1.055   0.161  1.00  0.00     0.026 A 
ATOM     15  C   UNL     1       6.982   0.016  -0.246  1.00  0.00     0.017 A 
ATOM     16  C   UNL     1       4.856  -0.967   0.183  1.00  0.00     0.043 A 
ATOM     17  C   UNL     1       6.356   1.159  -0.624  1.00  0.00     0.003 A 
ATOM     18  C   UNL     1       4.959   1.242  -0.598  1.00  0.00     0.026 A 
BRANCH  14  19
ATOM     19  C   UNL     1       6.883  -2.273   0.564  1.00  0.00    -0.070 C 
ATOM     20  C   UNL     1       7.439  -3.275   0.907  1.00  0.00     0.010 C 
ENDBRANCH  14  19
ENDBRANCH  11  13
ENDBRANCH   1  11
BRANCH   8  21
ATOM     21  O   UNL     1      -2.146  -1.231   0.588  1.00  0.00    -0.487 OA
BRANCH  21  22
ATOM     22  C   UNL     1      -1.675  -2.459   0.977  1.00  0.00     0.258 C 
BRANCH  22  23
ATOM     23  C   UNL     1      -1.038  -3.216  -0.134  1.00  0.00     0.201 C 
BRANCH  23  24
ATOM     24  O   UNL     1      -0.545  -4.468   0.235  1.00  0.00    -0.381 OA
ATOM     25  C   UNL     1      -1.493  -5.331   0.725  1.00  0.00     0.195 C 
ENDBRANCH  23  24
ENDBRANCH  22  23
ENDBRANCH  21  22
ENDBRANCH   8  21
BRANCH   7  26
ATOM     26  O   UNL     1      -3.618   0.799  -0.110  1.00  0.00    -0.487 OA
BRANCH  26  27
ATOM     27  C   UNL     1      -4.710   1.602  -0.347  1.00  0.00     0.258 C 
BRANCH  27  28
ATOM     28  C   UNL     1      -4.839   2.849   0.453  1.00  0.00     0.201 C 
BRANCH  28  29
ATOM     29  O   UNL     1      -5.974   3.546   0.095  1.00  0.00    -0.381 OA
ATOM     30  C   UNL     1      -7.172   2.889   0.274  1.00  0.00     0.195 C 
ENDBRANCH  28  29
ENDBRANCH  27  28
ENDBRANCH  26  27
ENDBRANCH   7  26
TORSDOF 11
